
  Mrv1920 03272013312D          

 30 33  0  0  1  0            999 V2000
   -1.0530    2.0928    0.0000 C   0  0  0  0  0  0  0  0  0  0  0  0
   -0.3884    1.6040    0.0000 C   0  0  0  0  0  0  0  0  0  0  0  0
    0.3672    1.9351    0.0000 N   0  0  0  0  0  0  0  0  0  0  0  0
    1.0318    1.4463    0.0000 C   0  0  0  0  0  0  0  0  0  0  0  0
    0.9408    0.6263    0.0000 O   0  0  0  0  0  0  0  0  0  0  0  0
    1.7874    1.7775    0.0000 C   0  0  0  0  0  0  0  0  0  0  0  0
    2.4520    1.2886    0.0000 C   0  0  2  0  0  0  0  0  0  0  0  0
    3.1808    1.6753    0.0000 N   0  0  0  0  0  0  0  0  0  0  0  0
    3.9375    1.3467    0.0000 C   0  0  0  0  0  0  0  0  0  0  0  0
    4.5619    1.8858    0.0000 C   0  0  0  0  0  0  0  0  0  0  0  0
    4.4072    2.6962    0.0000 C   0  0  0  0  0  0  0  0  0  0  0  0
    5.0317    3.2354    0.0000 C   0  0  0  0  0  0  0  0  0  0  0  0
    5.8108    2.9642    0.0000 C   0  0  0  0  0  0  0  0  0  0  0  0
    6.4353    3.5033    0.0000 Cl  0  0  0  0  0  0  0  0  0  0  0  0
    5.9655    2.1538    0.0000 C   0  0  0  0  0  0  0  0  0  0  0  0
    5.3411    1.6146    0.0000 C   0  0  0  0  0  0  0  0  0  0  0  0
    4.1523    0.5501    0.0000 C   0  0  0  0  0  0  0  0  0  0  0  0
    4.9723    0.4591    0.0000 C   0  0  0  0  0  0  0  0  0  0  0  0
    5.3034   -0.2965    0.0000 C   0  0  0  0  0  0  0  0  0  0  0  0
    6.1234   -0.3875    0.0000 O   0  0  0  0  0  0  0  0  0  0  0  0
    6.4546   -1.1432    0.0000 C   0  0  0  0  0  0  0  0  0  0  0  0
    4.8146   -0.9611    0.0000 C   0  0  0  0  0  0  0  0  0  0  0  0
    3.9947   -0.8701    0.0000 C   0  0  0  0  0  0  0  0  0  0  0  0
    3.6635   -0.1145    0.0000 C   0  0  0  0  0  0  0  0  0  0  0  0
    2.8392   -0.1467    0.0000 N   0  0  0  0  0  0  0  0  0  0  0  0
    2.4119   -0.8524    0.0000 C   0  0  0  0  0  0  0  0  0  0  0  0
    2.7317   -1.6129    0.0000 C   0  0  0  0  0  0  0  0  0  0  0  0
    1.6087   -0.6641    0.0000 N   0  0  0  0  0  0  0  0  0  0  0  0
    1.5395    0.1580    0.0000 N   0  0  0  0  0  0  0  0  0  0  0  0
    2.3000    0.4778    0.0000 C   0  0  0  0  0  0  0  0  0  0  0  0
  1  2  1  0  0  0  0
  2  3  1  0  0  0  0
  3  4  1  0  0  0  0
  4  5  2  0  0  0  0
  4  6  1  0  0  0  0
  7  6  1  6  0  0  0
  7  8  1  0  0  0  0
  8  9  2  0  0  0  0
  9 10  1  0  0  0  0
 10 11  2  0  0  0  0
 11 12  1  0  0  0  0
 12 13  2  0  0  0  0
 13 14  1  0  0  0  0
 13 15  1  0  0  0  0
 15 16  2  0  0  0  0
 10 16  1  0  0  0  0
  9 17  1  0  0  0  0
 17 18  2  0  0  0  0
 18 19  1  0  0  0  0
 19 20  1  0  0  0  0
 20 21  1  0  0  0  0
 19 22  2  0  0  0  0
 22 23  1  0  0  0  0
 23 24  2  0  0  0  0
 17 24  1  0  0  0  0
 24 25  1  0  0  0  0
 25 26  1  0  0  0  0
 26 27  1  0  0  0  0
 26 28  2  0  0  0  0
 28 29  1  0  0  0  0
 29 30  2  0  0  0  0
 25 30  1  0  0  0  0
  7 30  1  0  0  0  0
M  END
>  <StandardizerResult>
Tautomerize


>  <CdId>
109

>  <Mol Weight>
423.9

>  <Formula>
C22H22ClN5O2

>  <Molecule ChEMBL ID>
CHEMBL1232461

>  <Molecule Name>
MOLIBRESIB

>  <Molecule Max Phase>
2

>  <Molecular Weight>
423.9

>  <#RO5 Violations>
0

>  <AlogP>
3.66

>  <Compound Key>
5921

>  <Standard Type>
pKa_B1

>  <Standard Value>
2.1

>  <Comment>
'B1 Functional Group: 4H-[1,2,4]triazolo[4,3-a][1,4]benzodiazepine; Ionisation Formula: A0B1 (Functional Group: the part of the molecule the pKa refers to; Ionisation formula: AxBy where 'A' refers to acidic centers within the molecule that are appreciably ionised at a pH <= 11 and 'x' equals 0, 1 or 2; and 'B' refers to basic centers within the molecule that are appreciably ionised at a pH >= 2 and 'y' equals 0, 1, 2 or 3).'

>  <Potential Duplicate>
false

>  <Assay ChEMBL ID>
CHEMBL3301362

>  <Assay Description>
ASTRAZENECA: Most basic pKa value (pKa B1) determined by absorption and potentiometric titration using standard methodology from Sirius Analytical. Experimental range Bases: >= 2.

>  <Assay Type>
P

>  <BAO Format ID>
BAO_0000100

>  <BAO Label>
small-molecule physicochemical format

>  <Target ChEMBL ID>
CHEMBL2362975

>  <Target Name>
No relevant target

>  <Target Type>
NO TARGET

>  <Document ChEMBL ID>
CHEMBL3301361

>  <Source ID>
27

>  <Source Description>
AstraZeneca Deposited Data

>  <Strongest basic pKa>
4.36

>  <deltapKa>
-2.2572295146866126

>  <Strongest basic pKa_Taut>
4.36

>  <deltapKa_TAut>
-2.2572295146866126

$$$$

  Mrv1920 03272013312D          

 15 16  0  0  0  0            999 V2000
    0.7145   -3.7125    0.0000 N   0  0  0  0  0  0  0  0  0  0  0  0
    0.7145   -2.8875    0.0000 C   0  0  0  0  0  0  0  0  0  0  0  0
    1.4289   -2.4750    0.0000 C   0  0  0  0  0  0  0  0  0  0  0  0
    1.4289   -1.6500    0.0000 C   0  0  0  0  0  0  0  0  0  0  0  0
    0.7145   -1.2375    0.0000 C   0  0  0  0  0  0  0  0  0  0  0  0
    0.7145   -0.4125    0.0000 C   0  0  0  0  0  0  0  0  0  0  0  0
    1.4289    0.0000    0.0000 C   0  0  0  0  0  0  0  0  0  0  0  0
    1.4289    0.8250    0.0000 O   0  0  0  0  0  0  0  0  0  0  0  0
    2.1434   -0.4125    0.0000 C   0  0  0  0  0  0  0  0  0  0  0  0
    2.8579    0.0000    0.0000 N   0  0  0  0  0  0  0  0  0  0  0  0
    3.5724   -0.4125    0.0000 C   0  0  0  0  0  0  0  0  0  0  0  0
    4.2868    0.0000    0.0000 O   0  0  0  0  0  0  0  0  0  0  0  0
    3.5724   -1.2375    0.0000 C   0  0  0  0  0  0  0  0  0  0  0  0
    2.8579   -1.6500    0.0000 C   0  0  0  0  0  0  0  0  0  0  0  0
    2.1434   -1.2375    0.0000 C   0  0  0  0  0  0  0  0  0  0  0  0
  1  2  1  0  0  0  0
  2  3  1  0  0  0  0
  3  4  1  0  0  0  0
  4  5  1  0  0  0  0
  5  6  2  0  0  0  0
  6  7  1  0  0  0  0
  7  8  1  0  0  0  0
  7  9  2  0  0  0  0
  9 10  1  0  0  0  0
 10 11  1  0  0  0  0
 11 12  2  0  0  0  0
 11 13  1  0  0  0  0
 13 14  2  0  0  0  0
 14 15  1  0  0  0  0
  4 15  2  0  0  0  0
  9 15  1  0  0  0  0
M  END
>  <StandardizerResult>
Tautomerize


>  <CdId>
108

>  <Mol Weight>
204.23

>  <Formula>
C11H12N2O2

>  <Molecule ChEMBL ID>
CHEMBL53046

>  <Molecule Max Phase>
0

>  <Molecular Weight>
204.23

>  <#RO5 Violations>
0

>  <AlogP>
1.15

>  <Compound Key>
1451

>  <Standard Type>
pKa_B1

>  <Standard Value>
7.7

>  <Comment>
'B1 Functional Group: Primary amine; Ionisation Formula: A2B1 (Functional Group: the part of the molecule the pKa refers to; Ionisation formula: AxBy where 'A' refers to acidic centers within the molecule that are appreciably ionised at a pH <= 11 and 'x' equals 0, 1 or 2; and 'B' refers to basic centers within the molecule that are appreciably ionised at a pH >= 2 and 'y' equals 0, 1, 2 or 3).'

>  <Potential Duplicate>
false

>  <Assay ChEMBL ID>
CHEMBL3301362

>  <Assay Description>
ASTRAZENECA: Most basic pKa value (pKa B1) determined by absorption and potentiometric titration using standard methodology from Sirius Analytical. Experimental range Bases: >= 2.

>  <Assay Type>
P

>  <BAO Format ID>
BAO_0000100

>  <BAO Label>
small-molecule physicochemical format

>  <Target ChEMBL ID>
CHEMBL2362975

>  <Target Name>
No relevant target

>  <Target Type>
NO TARGET

>  <Document ChEMBL ID>
CHEMBL3301361

>  <Source ID>
27

>  <Source Description>
AstraZeneca Deposited Data

>  <Strongest basic pKa>
9.93

>  <deltapKa>
-2.226330603047681

>  <Strongest basic pKa_Taut>
9.9

>  <deltapKa_TAut>
-2.2022086748773093

$$$$

  Mrv1920 03272013312D          

 14 16  0  0  0  0            999 V2000
    2.1434   -3.7125    0.0000 N   0  0  0  0  0  0  0  0  0  0  0  0
    2.1434   -2.8875    0.0000 C   0  0  0  0  0  0  0  0  0  0  0  0
    1.4289   -2.4750    0.0000 N   0  0  0  0  0  0  0  0  0  0  0  0
    1.4289   -1.6500    0.0000 C   0  0  0  0  0  0  0  0  0  0  0  0
    0.7145   -1.2375    0.0000 C   0  0  0  0  0  0  0  0  0  0  0  0
    0.7145   -0.4125    0.0000 C   0  0  0  0  0  0  0  0  0  0  0  0
    1.4289    0.0000    0.0000 C   0  0  0  0  0  0  0  0  0  0  0  0
    2.1434   -0.4125    0.0000 C   0  0  0  0  0  0  0  0  0  0  0  0
    2.8579    0.0000    0.0000 C   0  0  0  0  0  0  0  0  0  0  0  0
    3.5724   -0.4125    0.0000 C   0  0  0  0  0  0  0  0  0  0  0  0
    3.5724   -1.2375    0.0000 C   0  0  0  0  0  0  0  0  0  0  0  0
    2.8579   -1.6500    0.0000 C   0  0  0  0  0  0  0  0  0  0  0  0
    2.8579   -2.4750    0.0000 N   0  0  0  0  0  0  0  0  0  0  0  0
    2.1434   -1.2375    0.0000 C   0  0  0  0  0  0  0  0  0  0  0  0
  1  2  1  0  0  0  0
  2  3  2  0  0  0  0
  3  4  1  0  0  0  0
  4  5  1  0  0  0  0
  5  6  2  0  0  0  0
  6  7  1  0  0  0  0
  7  8  2  0  0  0  0
  8  9  1  0  0  0  0
  9 10  2  0  0  0  0
 10 11  1  0  0  0  0
 11 12  2  0  0  0  0
 12 13  1  0  0  0  0
  2 13  1  0  0  0  0
 12 14  1  0  0  0  0
  8 14  1  0  0  0  0
  4 14  2  0  0  0  0
M  END
>  <StandardizerResult>
Tautomerize


>  <CdId>
225

>  <Mol Weight>
183.21

>  <Formula>
C11H9N3

>  <Molecule ChEMBL ID>
CHEMBL311074

>  <Molecule Max Phase>
0

>  <Molecular Weight>
183.21

>  <#RO5 Violations>
0

>  <AlogP>
2.3

>  <Compound Key>
1436

>  <Standard Type>
pKa_B1

>  <Standard Value>
7.6

>  <Comment>
'B1 Functional Group: 1H-perimidin-2-amine; Ionisation Formula: A0B1 (Functional Group: the part of the molecule the pKa refers to; Ionisation formula: AxBy where 'A' refers to acidic centers within the molecule that are appreciably ionised at a pH <= 11 and 'x' equals 0, 1 or 2; and 'B' refers to basic centers within the molecule that are appreciably ionised at a pH >= 2 and 'y' equals 0, 1, 2 or 3).'

>  <Potential Duplicate>
false

>  <Assay ChEMBL ID>
CHEMBL3301362

>  <Assay Description>
ASTRAZENECA: Most basic pKa value (pKa B1) determined by absorption and potentiometric titration using standard methodology from Sirius Analytical. Experimental range Bases: >= 2.

>  <Assay Type>
P

>  <BAO Format ID>
BAO_0000100

>  <BAO Label>
small-molecule physicochemical format

>  <Target ChEMBL ID>
CHEMBL2362975

>  <Target Name>
No relevant target

>  <Target Type>
NO TARGET

>  <Document ChEMBL ID>
CHEMBL3301361

>  <Source ID>
27

>  <Source Description>
AstraZeneca Deposited Data

>  <Strongest basic pKa>
9.45

>  <deltapKa>
-1.848053200051817

>  <Strongest basic pKa_Taut>
9.45

>  <deltapKa_TAut>
-1.848053200051817

$$$$

  Mrv1920 03272013312D          

 32 36  0  0  1  0            999 V2000
    8.1456    4.2430    0.0000 N   0  0  0  0  0  0  0  0  0  0  0  0
    7.4781    3.7581    0.0000 C   0  0  0  0  0  0  0  0  0  0  0  0
    7.5644    2.9376    0.0000 O   0  0  0  0  0  0  0  0  0  0  0  0
    6.7245    4.0936    0.0000 C   0  0  0  0  0  0  0  0  0  0  0  0
    5.9708    4.4292    0.0000 C   0  0  0  0  0  0  0  0  0  0  0  0
    5.3033    3.9443    0.0000 C   0  0  0  0  0  0  0  0  0  0  0  0
    4.5497    4.2798    0.0000 C   0  0  0  0  0  0  0  0  0  0  0  0
    4.4634    5.1003    0.0000 C   0  0  0  0  0  0  0  0  0  0  0  0
    5.1309    5.5852    0.0000 C   0  0  0  0  0  0  0  0  0  0  0  0
    5.8846    5.2497    0.0000 C   0  0  0  0  0  0  0  0  0  0  0  0
    7.0600    4.8473    0.0000 C   0  0  0  0  0  0  0  0  0  0  0  0
    6.5751    5.5147    0.0000 C   0  0  0  0  0  0  0  0  0  0  0  0
    6.9107    6.2684    0.0000 C   0  0  0  0  0  0  0  0  0  0  0  0
    7.7311    6.3547    0.0000 C   0  0  0  0  0  0  0  0  0  0  0  0
    8.2161    5.6872    0.0000 C   0  0  0  0  0  0  0  0  0  0  0  0
    7.8805    4.9335    0.0000 C   0  0  0  0  0  0  0  0  0  0  0  0
    6.3889    3.3400    0.0000 C   0  0  2  0  0  0  0  0  0  0  0  0
    6.8014    2.6255    0.0000 C   0  0  0  0  0  0  0  0  0  0  0  0
    6.2494    2.0124    0.0000 C   0  0  0  0  0  0  0  0  0  0  0  0
    5.4957    2.3479    0.0000 N   0  0  0  0  0  0  0  0  0  0  0  0
    4.7812    1.9354    0.0000 C   0  0  0  0  0  0  0  0  0  0  0  0
    4.0668    2.3479    0.0000 C   0  0  0  0  0  0  0  0  0  0  0  0
    3.3523    1.9354    0.0000 C   0  0  0  0  0  0  0  0  0  0  0  0
    3.3523    1.1104    0.0000 C   0  0  0  0  0  0  0  0  0  0  0  0
    2.6378    0.6979    0.0000 C   0  0  0  0  0  0  0  0  0  0  0  0
    1.9233    1.1104    0.0000 C   0  0  0  0  0  0  0  0  0  0  0  0
    1.9233    1.9354    0.0000 C   0  0  0  0  0  0  0  0  0  0  0  0
    2.6378    2.3479    0.0000 C   0  0  0  0  0  0  0  0  0  0  0  0
    1.1387    2.1904    0.0000 C   0  0  0  0  0  0  0  0  0  0  0  0
    0.6538    1.5229    0.0000 C   0  0  0  0  0  0  0  0  0  0  0  0
    1.1387    0.8555    0.0000 O   0  0  0  0  0  0  0  0  0  0  0  0
    5.5819    3.1684    0.0000 C   0  0  0  0  0  0  0  0  0  0  0  0
  1  2  1  0  0  0  0
  2  3  2  0  0  0  0
  2  4  1  0  0  0  0
  4  5  1  0  0  0  0
  5  6  2  0  0  0  0
  6  7  1  0  0  0  0
  7  8  2  0  0  0  0
  8  9  1  0  0  0  0
  9 10  2  0  0  0  0
  5 10  1  0  0  0  0
  4 11  1  0  0  0  0
 11 12  2  0  0  0  0
 12 13  1  0  0  0  0
 13 14  2  0  0  0  0
 14 15  1  0  0  0  0
 15 16  2  0  0  0  0
 11 16  1  0  0  0  0
 17  4  1  6  0  0  0
 17 18  1  0  0  0  0
 18 19  1  0  0  0  0
 19 20  1  0  0  0  0
 20 21  1  0  0  0  0
 21 22  1  0  0  0  0
 22 23  1  0  0  0  0
 23 24  2  0  0  0  0
 24 25  1  0  0  0  0
 25 26  2  0  0  0  0
 26 27  1  0  0  0  0
 27 28  2  0  0  0  0
 23 28  1  0  0  0  0
 27 29  1  0  0  0  0
 29 30  1  0  0  0  0
 30 31  1  0  0  0  0
 26 31  1  0  0  0  0
 20 32  1  0  0  0  0
 17 32  1  0  0  0  0
M  END
>  <StandardizerResult>
Tautomerize


>  <CdId>
123

>  <Mol Weight>
426.56

>  <Formula>
C28H30N2O2

>  <Molecule ChEMBL ID>
CHEMBL1346

>  <Molecule Name>
DARIFENACIN

>  <Molecule Max Phase>
4

>  <Molecular Weight>
426.56

>  <#RO5 Violations>
0

>  <AlogP>
3.96

>  <Compound Key>
3453

>  <Standard Type>
pKa_B1

>  <Standard Value>
8.3

>  <Comment>
'B1 Functional Group: Secondary amine; Ionisation Formula: A1B1 (Functional Group: the part of the molecule the pKa refers to; Ionisation formula: AxBy where 'A' refers to acidic centers within the molecule that are appreciably ionised at a pH <= 11 and 'x' equals 0, 1 or 2; and 'B' refers to basic centers within the molecule that are appreciably ionised at a pH >= 2 and 'y' equals 0, 1, 2 or 3).'

>  <Potential Duplicate>
false

>  <Assay ChEMBL ID>
CHEMBL3301362

>  <Assay Description>
ASTRAZENECA: Most basic pKa value (pKa B1) determined by absorption and potentiometric titration using standard methodology from Sirius Analytical. Experimental range Bases: >= 2.

>  <Assay Type>
P

>  <BAO Format ID>
BAO_0000100

>  <BAO Label>
small-molecule physicochemical format

>  <Target ChEMBL ID>
CHEMBL2362975

>  <Target Name>
No relevant target

>  <Target Type>
NO TARGET

>  <Document ChEMBL ID>
CHEMBL3301361

>  <Source ID>
27

>  <Source Description>
AstraZeneca Deposited Data

>  <Strongest basic pKa>
10.11

>  <deltapKa>
-1.8080347867984106

>  <Strongest basic pKa_Taut>
10.11

>  <deltapKa_TAut>
-1.8080347867984106

$$$$

  Mrv1920 03272013312D          

 12 12  0  0  0  0            999 V2000
    0.0000    3.3000    0.0000 N   0  0  0  0  0  0  0  0  0  0  0  0
    0.0000    2.4750    0.0000 C   0  0  0  0  0  0  0  0  0  0  0  0
    0.7145    2.0625    0.0000 C   0  0  0  0  0  0  0  0  0  0  0  0
    0.7145    1.2375    0.0000 C   0  0  0  0  0  0  0  0  0  0  0  0
    1.4289    0.8250    0.0000 C   0  0  0  0  0  0  0  0  0  0  0  0
    1.4289    0.0000    0.0000 C   0  0  0  0  0  0  0  0  0  0  0  0
    0.7145   -0.4125    0.0000 C   0  0  0  0  0  0  0  0  0  0  0  0
    0.7145   -1.2375    0.0000 O   0  0  0  0  0  0  0  0  0  0  0  0
    0.0000    0.0000    0.0000 C   0  0  0  0  0  0  0  0  0  0  0  0
   -0.7145   -0.4125    0.0000 O   0  0  0  0  0  0  0  0  0  0  0  0
    0.0000    0.8250    0.0000 C   0  0  0  0  0  0  0  0  0  0  0  0
   -0.7145    1.2375    0.0000 F   0  0  0  0  0  0  0  0  0  0  0  0
  1  2  1  0  0  0  0
  2  3  1  0  0  0  0
  3  4  1  0  0  0  0
  4  5  2  0  0  0  0
  5  6  1  0  0  0  0
  6  7  2  0  0  0  0
  7  8  1  0  0  0  0
  7  9  1  0  0  0  0
  9 10  1  0  0  0  0
  9 11  2  0  0  0  0
  4 11  1  0  0  0  0
 11 12  1  0  0  0  0
M  END
>  <StandardizerResult>
Tautomerize


>  <CdId>
33

>  <Mol Weight>
171.17

>  <Formula>
C8H10FNO2

>  <Molecule ChEMBL ID>
CHEMBL40268

>  <Molecule Max Phase>
0

>  <Molecular Weight>
171.17

>  <#RO5 Violations>
0

>  <AlogP>
0.74

>  <Compound Key>
1443

>  <Standard Type>
pKa_B1

>  <Standard Value>
8.0

>  <Comment>
'B1 Functional Group: Primary amine; Ionisation Formula: A2B1 (Functional Group: the part of the molecule the pKa refers to; Ionisation formula: AxBy where 'A' refers to acidic centers within the molecule that are appreciably ionised at a pH <= 11 and 'x' equals 0, 1 or 2; and 'B' refers to basic centers within the molecule that are appreciably ionised at a pH >= 2 and 'y' equals 0, 1, 2 or 3).'

>  <Potential Duplicate>
false

>  <Assay ChEMBL ID>
CHEMBL3301362

>  <Assay Description>
ASTRAZENECA: Most basic pKa value (pKa B1) determined by absorption and potentiometric titration using standard methodology from Sirius Analytical. Experimental range Bases: >= 2.

>  <Assay Type>
P

>  <BAO Format ID>
BAO_0000100

>  <BAO Label>
small-molecule physicochemical format

>  <Target ChEMBL ID>
CHEMBL2362975

>  <Target Name>
No relevant target

>  <Target Type>
NO TARGET

>  <Document ChEMBL ID>
CHEMBL3301361

>  <Source ID>
27

>  <Source Description>
AstraZeneca Deposited Data

>  <Strongest basic pKa>
9.75

>  <deltapKa>
-1.754196815015126

>  <Strongest basic pKa_Taut>
9.75

>  <deltapKa_TAut>
-1.754196815015126

$$$$

  Mrv1920 03272013312D          

 29 30  0  0  0  0            999 V2000
    3.5724   -2.8875    0.0000 C   0  0  0  0  0  0  0  0  0  0  0  0
    3.5724   -3.7125    0.0000 N   0  0  0  0  0  0  0  0  0  0  0  0
    2.8579   -4.1250    0.0000 C   0  0  0  0  0  0  0  0  0  0  0  0
    2.1434   -3.7125    0.0000 C   0  0  0  0  0  0  0  0  0  0  0  0
    1.4289   -4.1250    0.0000 O   0  0  0  0  0  0  0  0  0  0  0  0
    0.7145   -3.7125    0.0000 C   0  0  0  0  0  0  0  0  0  0  0  0
    0.0000   -4.1250    0.0000 C   0  0  0  0  0  0  0  0  0  0  0  0
   -0.7145   -3.7125    0.0000 C   0  0  0  0  0  0  0  0  0  0  0  0
   -0.7145   -2.8875    0.0000 C   0  0  0  0  0  0  0  0  0  0  0  0
   -1.4289   -2.4750    0.0000 N   0  0  0  0  0  0  0  0  0  0  0  0
   -1.4289   -1.6500    0.0000 S   0  0  0  0  0  0  0  0  0  0  0  0
   -1.4289   -0.8250    0.0000 C   0  0  0  0  0  0  0  0  0  0  0  0
   -2.2539   -1.6500    0.0000 O   0  0  0  0  0  0  0  0  0  0  0  0
   -0.6039   -1.6500    0.0000 O   0  0  0  0  0  0  0  0  0  0  0  0
    0.0000   -2.4750    0.0000 C   0  0  0  0  0  0  0  0  0  0  0  0
    0.7145   -2.8875    0.0000 C   0  0  0  0  0  0  0  0  0  0  0  0
    4.2868   -4.1250    0.0000 C   0  0  0  0  0  0  0  0  0  0  0  0
    5.0013   -3.7125    0.0000 C   0  0  0  0  0  0  0  0  0  0  0  0
    5.7158   -4.1250    0.0000 C   0  0  0  0  0  0  0  0  0  0  0  0
    6.4302   -3.7125    0.0000 C   0  0  0  0  0  0  0  0  0  0  0  0
    7.1447   -4.1250    0.0000 C   0  0  0  0  0  0  0  0  0  0  0  0
    7.1447   -4.9500    0.0000 C   0  0  0  0  0  0  0  0  0  0  0  0
    7.8592   -5.3625    0.0000 N   0  0  0  0  0  0  0  0  0  0  0  0
    8.5737   -4.9500    0.0000 S   0  0  0  0  0  0  0  0  0  0  0  0
    9.2881   -4.5375    0.0000 C   0  0  0  0  0  0  0  0  0  0  0  0
    8.9862   -5.6645    0.0000 O   0  0  0  0  0  0  0  0  0  0  0  0
    8.1612   -4.2355    0.0000 O   0  0  0  0  0  0  0  0  0  0  0  0
    6.4302   -5.3625    0.0000 C   0  0  0  0  0  0  0  0  0  0  0  0
    5.7158   -4.9500    0.0000 C   0  0  0  0  0  0  0  0  0  0  0  0
  1  2  1  0  0  0  0
  2  3  1  0  0  0  0
  3  4  1  0  0  0  0
  4  5  1  0  0  0  0
  5  6  1  0  0  0  0
  6  7  2  0  0  0  0
  7  8  1  0  0  0  0
  8  9  2  0  0  0  0
  9 10  1  0  0  0  0
 10 11  1  0  0  0  0
 11 12  1  0  0  0  0
 11 13  2  0  0  0  0
 11 14  2  0  0  0  0
  9 15  1  0  0  0  0
 15 16  2  0  0  0  0
  6 16  1  0  0  0  0
  2 17  1  0  0  0  0
 17 18  1  0  0  0  0
 18 19  1  0  0  0  0
 19 20  2  0  0  0  0
 20 21  1  0  0  0  0
 21 22  2  0  0  0  0
 22 23  1  0  0  0  0
 23 24  1  0  0  0  0
 24 25  1  0  0  0  0
 24 26  2  0  0  0  0
 24 27  2  0  0  0  0
 22 28  1  0  0  0  0
 28 29  2  0  0  0  0
 19 29  1  0  0  0  0
M  END
>  <StandardizerResult>
Tautomerize


>  <CdId>
103

>  <Mol Weight>
441.56

>  <Formula>
C19H27N3O5S2

>  <Molecule ChEMBL ID>
CHEMBL473

>  <Molecule Name>
DOFETILIDE

>  <Molecule Max Phase>
4

>  <Molecular Weight>
441.58

>  <#RO5 Violations>
0

>  <AlogP>
1.98

>  <Compound Key>
1615

>  <Standard Type>
pKa_B1

>  <Standard Value>
7.26

>  <Comment>
'B1 Functional Group: Tertiary amine; Ionisation Formula: A2B1 (Functional Group: the part of the molecule the pKa refers to; Ionisation formula: AxBy where 'A' refers to acidic centers within the molecule that are appreciably ionised at a pH <= 11 and 'x' equals 0, 1 or 2; and 'B' refers to basic centers within the molecule that are appreciably ionised at a pH >= 2 and 'y' equals 0, 1, 2 or 3).'

>  <Potential Duplicate>
false

>  <Assay ChEMBL ID>
CHEMBL3301362

>  <Assay Description>
ASTRAZENECA: Most basic pKa value (pKa B1) determined by absorption and potentiometric titration using standard methodology from Sirius Analytical. Experimental range Bases: >= 2.

>  <Assay Type>
P

>  <BAO Format ID>
BAO_0000100

>  <BAO Label>
small-molecule physicochemical format

>  <Target ChEMBL ID>
CHEMBL2362975

>  <Target Name>
No relevant target

>  <Target Type>
NO TARGET

>  <Document ChEMBL ID>
CHEMBL3301361

>  <Source ID>
27

>  <Source Description>
AstraZeneca Deposited Data

>  <Strongest basic pKa>
8.99

>  <deltapKa>
-1.7293929843552753

>  <Strongest basic pKa_Taut>
8.99

>  <deltapKa_TAut>
-1.7293929843552753

$$$$

  Mrv1920 03272013312D          

 30 32  0  0  1  0            999 V2000
   -1.2545   -4.1063    0.0000 C   0  0  0  0  0  0  0  0  0  0  0  0
   -1.4680   -3.3094    0.0000 O   0  0  0  0  0  0  0  0  0  0  0  0
   -0.8846   -2.7261    0.0000 N   0  0  0  0  0  0  0  0  0  0  0  0
   -1.0982   -1.9292    0.0000 C   0  0  0  0  0  0  0  0  0  0  0  0
   -0.5148   -1.3458    0.0000 C   0  0  0  0  0  0  0  0  0  0  0  0
   -0.7283   -0.5489    0.0000 O   0  0  0  0  0  0  0  0  0  0  0  0
    0.2821   -1.5593    0.0000 N   0  0  0  0  0  0  0  0  0  0  0  0
    0.8655   -0.9760    0.0000 C   0  0  2  0  0  0  0  0  0  0  0  0
    0.8655   -0.1510    0.0000 C   0  0  0  0  0  0  0  0  0  0  0  0
    0.2821    0.4324    0.0000 O   0  0  0  0  0  0  0  0  0  0  0  0
    1.6905   -0.1510    0.0000 N   0  0  0  0  0  0  0  0  0  0  0  0
    2.4049    0.2615    0.0000 C   0  0  0  0  0  0  0  0  0  0  0  0
    2.4049    1.0865    0.0000 C   0  0  0  0  0  0  0  0  0  0  0  0
    3.1194    1.4990    0.0000 O   0  0  0  0  0  0  0  0  0  0  0  0
    1.6905    1.4990    0.0000 O   0  0  0  0  0  0  0  0  0  0  0  0
    3.1194   -0.1510    0.0000 C   0  0  0  0  0  0  0  0  0  0  0  0
    3.8339    0.2615    0.0000 C   0  0  0  0  0  0  0  0  0  0  0  0
    4.5483   -0.1510    0.0000 O   0  0  0  0  0  0  0  0  0  0  0  0
    5.2628    0.2615    0.0000 C   0  0  0  0  0  0  0  0  0  0  0  0
    5.9773   -0.1510    0.0000 C   0  0  0  0  0  0  0  0  0  0  0  0
    5.2628    1.0865    0.0000 O   0  0  0  0  0  0  0  0  0  0  0  0
    3.1194   -0.9760    0.0000 C   0  0  0  0  0  0  0  0  0  0  0  0
    2.4049   -1.3885    0.0000 S   0  0  0  0  0  0  0  0  0  0  0  0
    1.6905   -0.9760    0.0000 C   0  0  2  0  0  0  0  0  0  0  0  0
   -1.8950   -1.7157    0.0000 C   0  0  0  0  0  0  0  0  0  0  0  0
   -2.5362   -2.2348    0.0000 C   0  0  0  0  0  0  0  0  0  0  0  0
   -3.2281   -1.7855    0.0000 S   0  0  0  0  0  0  0  0  0  0  0  0
   -3.0146   -0.9886    0.0000 C   0  0  0  0  0  0  0  0  0  0  0  0
   -3.5338   -0.3475    0.0000 N   0  0  0  0  0  0  0  0  0  0  0  0
   -2.1907   -0.9455    0.0000 N   0  0  0  0  0  0  0  0  0  0  0  0
  1  2  1  0  0  0  0
  3  2  1  4  0  0  0
  3  4  2  0  0  0  0
  4  5  1  0  0  0  0
  5  6  2  0  0  0  0
  5  7  1  0  0  0  0
  8  7  1  6  0  0  0
  8  9  1  0  0  0  0
  9 10  2  0  0  0  0
  9 11  1  0  0  0  0
 11 12  1  0  0  0  0
 12 13  1  0  0  0  0
 13 14  2  0  0  0  0
 13 15  1  0  0  0  0
 12 16  2  0  0  0  0
 16 17  1  0  0  0  0
 17 18  1  0  0  0  0
 18 19  1  0  0  0  0
 19 20  1  0  0  0  0
 19 21  2  0  0  0  0
 16 22  1  0  0  0  0
 22 23  1  0  0  0  0
 24 23  1  0  0  0  0
  8 24  1  0  0  0  0
 24 11  1  6  0  0  0
  4 25  1  0  0  0  0
 25 26  2  0  0  0  0
 26 27  1  0  0  0  0
 27 28  1  0  0  0  0
 28 29  1  0  0  0  0
 28 30  2  0  0  0  0
 25 30  1  0  0  0  0
M  END
>  <StandardizerResult>
Tautomerize


>  <CdId>
157

>  <Mol Weight>
455.46

>  <Formula>
C16H17N5O7S2

>  <Molecule ChEMBL ID>
CHEMBL1622795

>  <Molecule Max Phase>
0

>  <Molecular Weight>
455.47

>  <#RO5 Violations>
1

>  <AlogP>
-0.62

>  <Compound Key>
2558

>  <Standard Type>
pKa_B1

>  <Standard Value>
2.0

>  <Comment>
'B1 Functional Group: 1,3-Thiazol-2-amine; Ionisation Formula: A2B1 (Functional Group: the part of the molecule the pKa refers to; Ionisation formula: AxBy where 'A' refers to acidic centers within the molecule that are appreciably ionised at a pH <= 11 and 'x' equals 0, 1 or 2; and 'B' refers to basic centers within the molecule that are appreciably ionised at a pH >= 2 and 'y' equals 0, 1, 2 or 3).'

>  <Potential Duplicate>
false

>  <Assay ChEMBL ID>
CHEMBL3301362

>  <Assay Description>
ASTRAZENECA: Most basic pKa value (pKa B1) determined by absorption and potentiometric titration using standard methodology from Sirius Analytical. Experimental range Bases: >= 2.

>  <Assay Type>
P

>  <BAO Format ID>
BAO_0000100

>  <BAO Label>
small-molecule physicochemical format

>  <Target ChEMBL ID>
CHEMBL2362975

>  <Target Name>
No relevant target

>  <Target Type>
NO TARGET

>  <Document ChEMBL ID>
CHEMBL3301361

>  <Source ID>
27

>  <Source Description>
AstraZeneca Deposited Data

>  <Strongest basic pKa>
3.58

>  <deltapKa>
-1.5830725729429105

>  <Strongest basic pKa_Taut>
3.58

>  <deltapKa_TAut>
-1.5830725729429105

$$$$

  Mrv1920 03272013312D          

 37 40  0  0  0  0            999 V2000
   -6.7105   -1.0164    0.0000 C   0  0  0  0  0  0  0  0  0  0  0  0
   -5.8855   -1.0164    0.0000 C   0  0  0  0  0  0  0  0  0  0  0  0
   -5.0605   -1.0164    0.0000 C   0  0  0  0  0  0  0  0  0  0  0  0
   -5.8855   -0.1914    0.0000 C   0  0  0  0  0  0  0  0  0  0  0  0
   -6.6000    0.2211    0.0000 O   0  0  0  0  0  0  0  0  0  0  0  0
   -5.1711    0.2211    0.0000 O   0  0  0  0  0  0  0  0  0  0  0  0
   -5.8855   -1.8414    0.0000 C   0  0  0  0  0  0  0  0  0  0  0  0
   -5.1711   -2.2539    0.0000 C   0  0  0  0  0  0  0  0  0  0  0  0
   -5.1711   -3.0789    0.0000 C   0  0  0  0  0  0  0  0  0  0  0  0
   -5.8855   -3.4914    0.0000 C   0  0  0  0  0  0  0  0  0  0  0  0
   -5.8855   -4.3164    0.0000 C   0  0  0  0  0  0  0  0  0  0  0  0
   -6.6000   -4.7289    0.0000 O   0  0  0  0  0  0  0  0  0  0  0  0
   -5.1711   -4.7289    0.0000 C   0  0  0  0  0  0  0  0  0  0  0  0
   -5.1711   -5.5539    0.0000 C   0  0  0  0  0  0  0  0  0  0  0  0
   -4.4566   -5.9664    0.0000 C   0  0  0  0  0  0  0  0  0  0  0  0
   -4.4566   -6.7914    0.0000 N   0  0  0  0  0  0  0  0  0  0  0  0
   -3.7421   -7.2039    0.0000 C   0  0  0  0  0  0  0  0  0  0  0  0
   -3.7421   -8.0289    0.0000 C   0  0  0  0  0  0  0  0  0  0  0  0
   -4.4566   -8.4414    0.0000 C   0  0  0  0  0  0  0  0  0  0  0  0
   -4.4566   -9.2664    0.0000 C   0  0  0  0  0  0  0  0  0  0  0  0
   -5.2816   -9.2664    0.0000 O   0  0  0  0  0  0  0  0  0  0  0  0
   -4.4566  -10.0914    0.0000 C   0  0  0  0  0  0  0  0  0  0  0  0
   -3.7421  -10.5039    0.0000 C   0  0  0  0  0  0  0  0  0  0  0  0
   -3.7421  -11.3289    0.0000 C   0  0  0  0  0  0  0  0  0  0  0  0
   -4.4566  -11.7414    0.0000 C   0  0  0  0  0  0  0  0  0  0  0  0
   -5.1711  -11.3289    0.0000 C   0  0  0  0  0  0  0  0  0  0  0  0
   -5.1711  -10.5039    0.0000 C   0  0  0  0  0  0  0  0  0  0  0  0
   -3.6316   -9.2664    0.0000 C   0  0  0  0  0  0  0  0  0  0  0  0
   -3.2191   -8.5520    0.0000 C   0  0  0  0  0  0  0  0  0  0  0  0
   -2.3941   -8.5520    0.0000 C   0  0  0  0  0  0  0  0  0  0  0  0
   -1.9816   -9.2664    0.0000 C   0  0  0  0  0  0  0  0  0  0  0  0
   -2.3941   -9.9809    0.0000 C   0  0  0  0  0  0  0  0  0  0  0  0
   -3.2191   -9.9809    0.0000 C   0  0  0  0  0  0  0  0  0  0  0  0
   -5.1711   -8.0289    0.0000 C   0  0  0  0  0  0  0  0  0  0  0  0
   -5.1711   -7.2039    0.0000 C   0  0  0  0  0  0  0  0  0  0  0  0
   -6.6000   -3.0789    0.0000 C   0  0  0  0  0  0  0  0  0  0  0  0
   -6.6000   -2.2539    0.0000 C   0  0  0  0  0  0  0  0  0  0  0  0
  1  2  1  0  0  0  0
  2  3  1  0  0  0  0
  2  4  1  0  0  0  0
  4  5  2  0  0  0  0
  4  6  1  0  0  0  0
  2  7  1  0  0  0  0
  7  8  2  0  0  0  0
  8  9  1  0  0  0  0
  9 10  2  0  0  0  0
 10 11  1  0  0  0  0
 11 12  1  0  0  0  0
 11 13  1  0  0  0  0
 13 14  1  0  0  0  0
 14 15  1  0  0  0  0
 15 16  1  0  0  0  0
 16 17  1  0  0  0  0
 17 18  1  0  0  0  0
 18 19  1  0  0  0  0
 19 20  1  0  0  0  0
 20 21  1  0  0  0  0
 20 22  1  0  0  0  0
 22 23  2  0  0  0  0
 23 24  1  0  0  0  0
 24 25  2  0  0  0  0
 25 26  1  0  0  0  0
 26 27  2  0  0  0  0
 22 27  1  0  0  0  0
 20 28  1  0  0  0  0
 28 29  2  0  0  0  0
 29 30  1  0  0  0  0
 30 31  2  0  0  0  0
 31 32  1  0  0  0  0
 32 33  2  0  0  0  0
 28 33  1  0  0  0  0
 19 34  1  0  0  0  0
 34 35  1  0  0  0  0
 16 35  1  0  0  0  0
 10 36  1  0  0  0  0
 36 37  2  0  0  0  0
  7 37  1  0  0  0  0
M  END
>  <StandardizerResult>
Tautomerize


>  <CdId>
213

>  <Mol Weight>
501.67

>  <Formula>
C32H39NO4

>  <Molecule ChEMBL ID>
CHEMBL914

>  <Molecule Name>
FEXOFENADINE

>  <Molecule Max Phase>
4

>  <Molecular Weight>
501.67

>  <#RO5 Violations>
2

>  <AlogP>
5.51

>  <Compound Key>
2145

>  <Standard Type>
pKa_B1

>  <Standard Value>
7.53

>  <Comment>
'B1 Functional Group: Piperidine; Ionisation Formula: A1B1 (Functional Group: the part of the molecule the pKa refers to; Ionisation formula: AxBy where 'A' refers to acidic centers within the molecule that are appreciably ionised at a pH <= 11 and 'x' equals 0, 1 or 2; and 'B' refers to basic centers within the molecule that are appreciably ionised at a pH >= 2 and 'y' equals 0, 1, 2 or 3).'

>  <Potential Duplicate>
false

>  <Assay ChEMBL ID>
CHEMBL3301362

>  <Assay Description>
ASTRAZENECA: Most basic pKa value (pKa B1) determined by absorption and potentiometric titration using standard methodology from Sirius Analytical. Experimental range Bases: >= 2.

>  <Assay Type>
P

>  <BAO Format ID>
BAO_0000100

>  <BAO Label>
small-molecule physicochemical format

>  <Target ChEMBL ID>
CHEMBL2362975

>  <Target Name>
No relevant target

>  <Target Type>
NO TARGET

>  <Document ChEMBL ID>
CHEMBL3301361

>  <Source ID>
27

>  <Source Description>
AstraZeneca Deposited Data

>  <Strongest basic pKa>
9.01

>  <deltapKa>
-1.480501448307204

>  <Strongest basic pKa_Taut>
9.01

>  <deltapKa_TAut>
-1.480501448307204

$$$$

  Mrv1920 03272013312D          

 37 40  0  0  0  0            999 V2000
    7.1447    1.6500    0.0000 O   0  0  0  0  0  0  0  0  0  0  0  0
    7.1447    0.8250    0.0000 C   0  0  0  0  0  0  0  0  0  0  0  0
    7.1447    0.0000    0.0000 C   0  0  0  0  0  0  0  0  0  0  0  0
    7.8592   -0.4125    0.0000 C   0  0  0  0  0  0  0  0  0  0  0  0
    7.8592   -1.2375    0.0000 C   0  0  0  0  0  0  0  0  0  0  0  0
    7.1447   -1.6500    0.0000 C   0  0  0  0  0  0  0  0  0  0  0  0
    7.1447   -2.4750    0.0000 C   0  0  0  0  0  0  0  0  0  0  0  0
    7.8592   -2.8875    0.0000 C   0  0  0  0  0  0  0  0  0  0  0  0
    7.8592   -3.7125    0.0000 C   0  0  0  0  0  0  0  0  0  0  0  0
    7.1447   -4.1250    0.0000 C   0  0  0  0  0  0  0  0  0  0  0  0
    7.1447   -4.9500    0.0000 C   0  0  0  0  0  0  0  0  0  0  0  0
    6.4302   -5.3625    0.0000 N   0  0  0  0  0  0  0  0  0  0  0  0
    6.4302   -6.1875    0.0000 C   0  0  0  0  0  0  0  0  0  0  0  0
    5.7158   -6.6000    0.0000 C   0  0  0  0  0  0  0  0  0  0  0  0
    5.0013   -6.1875    0.0000 N   0  0  0  0  0  0  0  0  0  0  0  0
    4.2868   -6.6000    0.0000 C   0  0  0  0  0  0  0  0  0  0  0  0
    3.5724   -6.1875    0.0000 C   0  0  0  0  0  0  0  0  0  0  0  0
    2.8579   -6.6000    0.0000 C   0  0  0  0  0  0  0  0  0  0  0  0
    2.1434   -6.1875    0.0000 C   0  0  0  0  0  0  0  0  0  0  0  0
    2.1434   -5.3625    0.0000 N   0  0  0  0  0  0  0  0  0  0  0  0
    2.8579   -4.9500    0.0000 C   0  0  0  0  0  0  0  0  0  0  0  0
    3.5724   -5.3625    0.0000 C   0  0  0  0  0  0  0  0  0  0  0  0
    5.0013   -5.3625    0.0000 C   0  0  0  0  0  0  0  0  0  0  0  0
    5.7158   -4.9500    0.0000 C   0  0  0  0  0  0  0  0  0  0  0  0
    6.4302   -3.7125    0.0000 C   0  0  0  0  0  0  0  0  0  0  0  0
    6.4302   -2.8875    0.0000 C   0  0  0  0  0  0  0  0  0  0  0  0
    6.4302   -1.2375    0.0000 C   0  0  0  0  0  0  0  0  0  0  0  0
    5.7158   -1.6500    0.0000 F   0  0  0  0  0  0  0  0  0  0  0  0
    6.4302   -0.4125    0.0000 C   0  0  0  0  0  0  0  0  0  0  0  0
    7.9697    0.8250    0.0000 C   0  0  0  0  0  0  0  0  0  0  0  0
    8.7947    0.8250    0.0000 F   0  0  0  0  0  0  0  0  0  0  0  0
    7.9697    0.0000    0.0000 F   0  0  0  0  0  0  0  0  0  0  0  0
    7.9697    1.6500    0.0000 F   0  0  0  0  0  0  0  0  0  0  0  0
    6.3197    0.8250    0.0000 C   0  0  0  0  0  0  0  0  0  0  0  0
    5.4947    0.8250    0.0000 F   0  0  0  0  0  0  0  0  0  0  0  0
    6.3197    1.6500    0.0000 F   0  0  0  0  0  0  0  0  0  0  0  0
    6.3197    0.0000    0.0000 F   0  0  0  0  0  0  0  0  0  0  0  0
  1  2  1  0  0  0  0
  2  3  1  0  0  0  0
  3  4  2  0  0  0  0
  4  5  1  0  0  0  0
  5  6  2  0  0  0  0
  6  7  1  0  0  0  0
  7  8  2  0  0  0  0
  8  9  1  0  0  0  0
  9 10  2  0  0  0  0
 10 11  1  0  0  0  0
 11 12  1  0  0  0  0
 12 13  1  0  0  0  0
 13 14  1  0  0  0  0
 14 15  1  0  0  0  0
 15 16  1  0  0  0  0
 16 17  1  0  0  0  0
 17 18  2  0  0  0  0
 18 19  1  0  0  0  0
 19 20  2  0  0  0  0
 20 21  1  0  0  0  0
 21 22  2  0  0  0  0
 17 22  1  0  0  0  0
 15 23  1  0  0  0  0
 23 24  1  0  0  0  0
 12 24  1  0  0  0  0
 10 25  1  0  0  0  0
 25 26  2  0  0  0  0
  7 26  1  0  0  0  0
  6 27  1  0  0  0  0
 27 28  1  0  0  0  0
 27 29  2  0  0  0  0
  3 29  1  0  0  0  0
  2 30  1  0  0  0  0
 30 31  1  0  0  0  0
 30 32  1  0  0  0  0
 30 33  1  0  0  0  0
  2 34  1  0  0  0  0
 34 35  1  0  0  0  0
 34 36  1  0  0  0  0
 34 37  1  0  0  0  0
M  END
>  <StandardizerResult>
Tautomerize


>  <CdId>
208

>  <Mol Weight>
527.49

>  <Formula>
C26H24F7N3O

>  <Molecule ChEMBL ID>
CHEMBL2137199

>  <Molecule Max Phase>
0

>  <Molecular Weight>
527.48

>  <#RO5 Violations>
2

>  <AlogP>
5.52

>  <Compound Key>
5825

>  <Standard Type>
pKa_B1

>  <Standard Value>
6.45

>  <Comment>
'B1 Functional Group: Piperazine; Ionisation Formula: A1B2 (Functional Group: the part of the molecule the pKa refers to; Ionisation formula: AxBy where 'A' refers to acidic centers within the molecule that are appreciably ionised at a pH <= 11 and 'x' equals 0, 1 or 2; and 'B' refers to basic centers within the molecule that are appreciably ionised at a pH >= 2 and 'y' equals 0, 1, 2 or 3).'

>  <Potential Duplicate>
false

>  <Assay ChEMBL ID>
CHEMBL3301362

>  <Assay Description>
ASTRAZENECA: Most basic pKa value (pKa B1) determined by absorption and potentiometric titration using standard methodology from Sirius Analytical. Experimental range Bases: >= 2.

>  <Assay Type>
P

>  <BAO Format ID>
BAO_0000100

>  <BAO Label>
small-molecule physicochemical format

>  <Target ChEMBL ID>
CHEMBL2362975

>  <Target Name>
No relevant target

>  <Target Type>
NO TARGET

>  <Document ChEMBL ID>
CHEMBL3301361

>  <Source ID>
27

>  <Source Description>
AstraZeneca Deposited Data

>  <Strongest basic pKa>
7.83

>  <deltapKa>
-1.3838362718844994

>  <Strongest basic pKa_Taut>
7.83

>  <deltapKa_TAut>
-1.3838362718844994

$$$$

  Mrv1920 03272013312D          

 28 30  0  0  1  0            999 V2000
   -1.4289    0.8250    0.0000 C   0  0  0  0  0  0  0  0  0  0  0  0
   -0.7145    1.2375    0.0000 C   0  0  0  0  0  0  0  0  0  0  0  0
    0.0000    0.8250    0.0000 O   0  0  0  0  0  0  0  0  0  0  0  0
    0.0000    0.0000    0.0000 C   0  0  0  0  0  0  0  0  0  0  0  0
   -0.7145   -0.4125    0.0000 N   0  0  0  0  0  0  0  0  0  0  0  0
   -0.7145   -1.2375    0.0000 C   0  0  0  0  0  0  0  0  0  0  0  0
    0.0000   -1.6500    0.0000 C   0  0  0  0  0  0  0  0  0  0  0  0
    0.0000   -2.4750    0.0000 C   0  0  0  0  0  0  0  0  0  0  0  0
    0.7145   -1.2375    0.0000 C   0  0  0  0  0  0  0  0  0  0  0  0
    0.7145   -0.4125    0.0000 C   0  0  0  0  0  0  0  0  0  0  0  0
    1.4289    0.0000    0.0000 C   0  0  2  0  0  0  0  0  0  0  0  0
    1.4289    0.8250    0.0000 C   0  0  0  0  0  0  0  0  0  0  0  0
    0.7145    1.2375    0.0000 C   0  0  0  0  0  0  0  0  0  0  0  0
    0.7145    2.0625    0.0000 C   0  0  0  0  0  0  0  0  0  0  0  0
    1.4289    2.4750    0.0000 C   0  0  0  0  0  0  0  0  0  0  0  0
    1.4289    3.3000    0.0000 C   0  0  0  0  0  0  0  0  0  0  0  0
    1.4289    4.1250    0.0000 N   0  0  0  0  0  0  0  0  0  0  0  0
    2.1434    2.0625    0.0000 C   0  0  0  0  0  0  0  0  0  0  0  0
    2.1434    1.2375    0.0000 C   0  0  0  0  0  0  0  0  0  0  0  0
    2.8579    0.8250    0.0000 O   0  0  0  0  0  0  0  0  0  0  0  0
    3.5724    1.2375    0.0000 C   0  0  0  0  0  0  0  0  0  0  0  0
    2.1434   -0.4125    0.0000 C   0  0  0  0  0  0  0  0  0  0  0  0
    2.8579    0.0000    0.0000 C   0  0  0  0  0  0  0  0  0  0  0  0
    3.5724   -0.4125    0.0000 N   0  0  0  0  0  0  0  0  0  0  0  0
    3.3428    0.6674    0.0000 O   0  0  0  0  0  0  0  0  0  0  0  0
    2.1434   -1.2375    0.0000 C   0  0  0  0  0  0  0  0  0  0  0  0
    2.8579   -1.6500    0.0000 C   0  0  0  0  0  0  0  0  0  0  0  0
    1.4289   -1.6500    0.0000 N   0  0  0  0  0  0  0  0  0  0  0  0
  1  2  1  0  0  0  0
  2  3  1  0  0  0  0
  3  4  1  0  0  0  0
  4  5  2  0  0  0  0
  5  6  1  0  0  0  0
  6  7  2  0  0  0  0
  7  8  1  0  0  0  0
  7  9  1  0  0  0  0
  9 10  2  0  0  0  0
  4 10  1  0  0  0  0
 11 10  1  0  0  0  0
 11 12  1  6  0  0  0
 12 13  2  0  0  0  0
 13 14  1  0  0  0  0
 14 15  2  0  0  0  0
 15 16  1  0  0  0  0
 16 17  3  0  0  0  0
 15 18  1  0  0  0  0
 18 19  2  0  0  0  0
 12 19  1  0  0  0  0
 19 20  1  0  0  0  0
 20 21  1  0  0  0  0
 11 22  1  0  0  0  0
 22 23  1  0  0  0  0
 23 24  1  0  0  0  0
 23 25  2  0  0  0  0
 22 26  2  0  0  0  0
 26 27  1  0  0  0  0
 26 28  1  0  0  0  0
  9 28  1  0  0  0  0
M  END
>  <StandardizerResult>
Tautomerize


>  <CdId>
102

>  <Mol Weight>
378.43

>  <Formula>
C21H22N4O3

>  <Molecule ChEMBL ID>
CHEMBL2181927

>  <Molecule Name>
FINERENONE

>  <Molecule Max Phase>
3

>  <Molecular Weight>
378.43

>  <#RO5 Violations>
0

>  <AlogP>
2.99

>  <Compound Key>
5874

>  <Standard Type>
pKa_B1

>  <Standard Value>
4.68

>  <Comment>
'B1 Functional Group: 1,6-Naphthyridine, 1,4-dihydro-; Ionisation Formula: A0B1 (Functional Group: the part of the molecule the pKa refers to; Ionisation formula: AxBy where 'A' refers to acidic centers within the molecule that are appreciably ionised at a pH <= 11 and 'x' equals 0, 1 or 2; and 'B' refers to basic centers within the molecule that are appreciably ionised at a pH >= 2 and 'y' equals 0, 1, 2 or 3).'

>  <Potential Duplicate>
false

>  <Assay ChEMBL ID>
CHEMBL3301362

>  <Assay Description>
ASTRAZENECA: Most basic pKa value (pKa B1) determined by absorption and potentiometric titration using standard methodology from Sirius Analytical. Experimental range Bases: >= 2.

>  <Assay Type>
P

>  <BAO Format ID>
BAO_0000100

>  <BAO Label>
small-molecule physicochemical format

>  <Target ChEMBL ID>
CHEMBL2362975

>  <Target Name>
No relevant target

>  <Target Type>
NO TARGET

>  <Document ChEMBL ID>
CHEMBL3301361

>  <Source ID>
27

>  <Source Description>
AstraZeneca Deposited Data

>  <Strongest basic pKa>
6.06

>  <deltapKa>
-1.3822859056863397

>  <Strongest basic pKa_Taut>
6.06

>  <deltapKa_TAut>
-1.3822859056863397

$$$$

  Mrv1920 03272013312D          

 32 34  0  0  0  0            999 V2000
   -1.4289   -1.6500    0.0000 C   0  0  0  0  0  0  0  0  0  0  0  0
   -0.7145   -2.0625    0.0000 C   0  0  0  0  0  0  0  0  0  0  0  0
    0.0000   -1.6500    0.0000 C   0  0  0  0  0  0  0  0  0  0  0  0
    0.7145   -2.0625    0.0000 C   0  0  0  0  0  0  0  0  0  0  0  0
    1.4289   -1.6500    0.0000 C   0  0  0  0  0  0  0  0  0  0  0  0
    2.1434   -2.0625    0.0000 N   0  0  0  0  0  0  0  0  0  0  0  0
    2.8579   -1.6500    0.0000 C   0  0  0  0  0  0  0  0  0  0  0  0
    3.5724   -2.0625    0.0000 C   0  0  0  0  0  0  0  0  0  0  0  0
    3.5724   -2.8875    0.0000 O   0  0  0  0  0  0  0  0  0  0  0  0
    4.2868   -1.6500    0.0000 N   0  0  0  0  0  0  0  0  0  0  0  0
    5.0013   -2.0625    0.0000 C   0  0  0  0  0  0  0  0  0  0  0  0
    5.7158   -1.6500    0.0000 C   0  0  0  0  0  0  0  0  0  0  0  0
    6.4302   -2.0625    0.0000 C   0  0  0  0  0  0  0  0  0  0  0  0
    6.4302   -2.8875    0.0000 C   0  0  0  0  0  0  0  0  0  0  0  0
    7.1447   -3.3000    0.0000 Cl  0  0  0  0  0  0  0  0  0  0  0  0
    5.7158   -3.3000    0.0000 C   0  0  0  0  0  0  0  0  0  0  0  0
    5.0013   -2.8875    0.0000 C   0  0  0  0  0  0  0  0  0  0  0  0
    4.2868   -3.3000    0.0000 Cl  0  0  0  0  0  0  0  0  0  0  0  0
    2.1434   -2.8875    0.0000 C   0  0  0  0  0  0  0  0  0  0  0  0
    2.8579   -3.3000    0.0000 C   0  0  0  0  0  0  0  0  0  0  0  0
    2.8579   -4.1250    0.0000 C   0  0  0  0  0  0  0  0  0  0  0  0
    2.1434   -4.5375    0.0000 C   0  0  0  0  0  0  0  0  0  0  0  0
    1.4289   -4.1250    0.0000 C   0  0  0  0  0  0  0  0  0  0  0  0
    1.4289   -3.3000    0.0000 C   0  0  0  0  0  0  0  0  0  0  0  0
    0.7145   -2.8875    0.0000 C   0  0  0  0  0  0  0  0  0  0  0  0
    0.0000   -3.3000    0.0000 C   0  0  0  0  0  0  0  0  0  0  0  0
   -0.7145   -2.8875    0.0000 C   0  0  0  0  0  0  0  0  0  0  0  0
   -1.4289   -3.3000    0.0000 O   0  0  0  0  0  0  0  0  0  0  0  0
   -1.4289   -4.1250    0.0000 C   0  0  0  0  0  0  0  0  0  0  0  0
   -2.1434   -4.5375    0.0000 C   0  0  0  0  0  0  0  0  0  0  0  0
   -2.1434   -5.3625    0.0000 O   0  0  0  0  0  0  0  0  0  0  0  0
   -2.8579   -4.1250    0.0000 O   0  0  0  0  0  0  0  0  0  0  0  0
  1  2  1  0  0  0  0
  2  3  2  0  0  0  0
  3  4  1  0  0  0  0
  4  5  1  0  0  0  0
  5  6  1  0  0  0  0
  6  7  1  0  0  0  0
  7  8  1  0  0  0  0
  8  9  2  0  0  0  0
  8 10  1  0  0  0  0
 10 11  1  0  0  0  0
 11 12  2  0  0  0  0
 12 13  1  0  0  0  0
 13 14  2  0  0  0  0
 14 15  1  0  0  0  0
 14 16  1  0  0  0  0
 16 17  2  0  0  0  0
 11 17  1  0  0  0  0
 17 18  1  0  0  0  0
  6 19  1  0  0  0  0
 19 20  1  0  0  0  0
 20 21  1  0  0  0  0
 21 22  1  0  0  0  0
 22 23  1  0  0  0  0
 23 24  1  0  0  0  0
 19 24  1  0  0  0  0
  4 25  2  0  0  0  0
 25 26  1  0  0  0  0
 26 27  2  0  0  0  0
  2 27  1  0  0  0  0
 27 28  1  0  0  0  0
 28 29  1  0  0  0  0
 29 30  1  0  0  0  0
 30 31  2  0  0  0  0
 30 32  1  0  0  0  0
M  END
>  <StandardizerResult>
Tautomerize


>  <CdId>
52

>  <Mol Weight>
479.4

>  <Formula>
C24H28Cl2N2O4

>  <Molecule ChEMBL ID>
CHEMBL1081917

>  <Molecule Max Phase>
0

>  <Molecular Weight>
479.4

>  <#RO5 Violations>
1

>  <AlogP>
5.54

>  <Compound Key>
5219

>  <Standard Type>
pKa_B1

>  <Standard Value>
6.7

>  <Comment>
'B1 Functional Group: Tertiary amine; Ionisation Formula: A1B1 (Functional Group: the part of the molecule the pKa refers to; Ionisation formula: AxBy where 'A' refers to acidic centers within the molecule that are appreciably ionised at a pH <= 11 and 'x' equals 0, 1 or 2; and 'B' refers to basic centers within the molecule that are appreciably ionised at a pH >= 2 and 'y' equals 0, 1, 2 or 3).'

>  <Potential Duplicate>
false

>  <Assay ChEMBL ID>
CHEMBL3301362

>  <Assay Description>
ASTRAZENECA: Most basic pKa value (pKa B1) determined by absorption and potentiometric titration using standard methodology from Sirius Analytical. Experimental range Bases: >= 2.

>  <Assay Type>
P

>  <BAO Format ID>
BAO_0000100

>  <BAO Label>
small-molecule physicochemical format

>  <Target ChEMBL ID>
CHEMBL2362975

>  <Target Name>
No relevant target

>  <Target Type>
NO TARGET

>  <Document ChEMBL ID>
CHEMBL3301361

>  <Source ID>
27

>  <Source Description>
AstraZeneca Deposited Data

>  <Strongest basic pKa>
8.05

>  <deltapKa>
-1.3478426630241396

>  <Strongest basic pKa_Taut>
8.05

>  <deltapKa_TAut>
-1.3478426630241396

$$$$

  Mrv1920 03272013312D          

 49 53  0  0  1  0            999 V2000
    7.8592    1.2375    0.0000 C   0  0  0  0  0  0  0  0  0  0  0  0
    7.1447    0.8250    0.0000 C   0  0  0  0  0  0  0  0  0  0  0  0
    6.7322    1.5395    0.0000 C   0  0  0  0  0  0  0  0  0  0  0  0
    7.5572    0.1105    0.0000 C   0  0  0  0  0  0  0  0  0  0  0  0
    6.4302    0.4125    0.0000 N   0  0  0  0  0  0  0  0  0  0  0  0
    6.4302   -0.4125    0.0000 C   0  0  0  0  0  0  0  0  0  0  0  0
    7.1447   -0.8250    0.0000 O   0  0  0  0  0  0  0  0  0  0  0  0
    5.7158   -0.8250    0.0000 C   0  0  2  0  0  0  0  0  0  0  0  0
    5.0013   -0.4125    0.0000 C   0  0  0  0  0  0  0  0  0  0  0  0
    4.2868   -0.8250    0.0000 C   0  0  2  0  0  0  0  0  0  0  0  0
    3.5724   -0.4125    0.0000 C   0  0  0  0  0  0  0  0  0  0  0  0
    2.8579   -0.8250    0.0000 C   0  0  0  0  0  0  0  0  0  0  0  0
    2.8579   -1.6500    0.0000 C   0  0  0  0  0  0  0  0  0  0  0  0
    3.5724   -2.0625    0.0000 C   0  0  0  0  0  0  0  0  0  0  0  0
    4.2868   -1.6500    0.0000 C   0  0  2  0  0  0  0  0  0  0  0  0
    5.0013   -2.0625    0.0000 C   0  0  0  0  0  0  0  0  0  0  0  0
    5.7158   -1.6500    0.0000 N   0  0  0  0  0  0  0  0  0  0  0  0
    6.4302   -2.0625    0.0000 C   0  0  0  0  0  0  0  0  0  0  0  0
    7.1447   -1.6500    0.0000 C   0  0  1  0  0  0  0  0  0  0  0  0
    7.6296   -0.9826    0.0000 O   0  0  0  0  0  0  0  0  0  0  0  0
    7.8592   -2.0625    0.0000 C   0  0  2  0  0  0  0  0  0  0  0  0
    7.8592   -2.8875    0.0000 C   0  0  0  0  0  0  0  0  0  0  0  0
    7.1447   -3.3000    0.0000 C   0  0  0  0  0  0  0  0  0  0  0  0
    7.1447   -4.1250    0.0000 C   0  0  0  0  0  0  0  0  0  0  0  0
    6.4302   -4.5375    0.0000 C   0  0  0  0  0  0  0  0  0  0  0  0
    5.7158   -4.1250    0.0000 C   0  0  0  0  0  0  0  0  0  0  0  0
    5.7158   -3.3000    0.0000 C   0  0  0  0  0  0  0  0  0  0  0  0
    6.4302   -2.8875    0.0000 C   0  0  0  0  0  0  0  0  0  0  0  0
    8.5737   -1.6500    0.0000 N   0  0  0  0  0  0  0  0  0  0  0  0
    9.2881   -2.0625    0.0000 C   0  0  0  0  0  0  0  0  0  0  0  0
    9.2881   -2.8875    0.0000 O   0  0  0  0  0  0  0  0  0  0  0  0
   10.0026   -1.6500    0.0000 C   0  0  2  0  0  0  0  0  0  0  0  0
   10.0026   -0.8250    0.0000 C   0  0  0  0  0  0  0  0  0  0  0  0
    9.2881   -0.4125    0.0000 C   0  0  0  0  0  0  0  0  0  0  0  0
    8.5737   -0.8250    0.0000 N   0  0  0  0  0  0  0  0  0  0  0  0
    9.2881    0.4125    0.0000 O   0  0  0  0  0  0  0  0  0  0  0  0
   10.7171   -2.0625    0.0000 N   0  0  0  0  0  0  0  0  0  0  0  0
   11.4315   -1.6500    0.0000 C   0  0  0  0  0  0  0  0  0  0  0  0
   11.4315   -0.8250    0.0000 O   0  0  0  0  0  0  0  0  0  0  0  0
   12.1460   -2.0625    0.0000 C   0  0  0  0  0  0  0  0  0  0  0  0
   12.8605   -1.6500    0.0000 C   0  0  0  0  0  0  0  0  0  0  0  0
   13.5749   -2.0625    0.0000 C   0  0  0  0  0  0  0  0  0  0  0  0
   13.5749   -2.8875    0.0000 C   0  0  0  0  0  0  0  0  0  0  0  0
   14.2894   -3.3000    0.0000 C   0  0  0  0  0  0  0  0  0  0  0  0
   14.2894   -4.1250    0.0000 C   0  0  0  0  0  0  0  0  0  0  0  0
   13.5749   -4.5375    0.0000 C   0  0  0  0  0  0  0  0  0  0  0  0
   12.8605   -4.1250    0.0000 C   0  0  0  0  0  0  0  0  0  0  0  0
   12.8605   -3.3000    0.0000 C   0  0  0  0  0  0  0  0  0  0  0  0
   12.1460   -2.8875    0.0000 N   0  0  0  0  0  0  0  0  0  0  0  0
  1  2  1  0  0  0  0
  2  3  1  0  0  0  0
  2  4  1  0  0  0  0
  2  5  1  0  0  0  0
  5  6  1  0  0  0  0
  6  7  2  0  0  0  0
  8  6  1  1  0  0  0
  8  9  1  0  0  0  0
 10  9  1  1  0  0  0
 10 11  1  0  0  0  0
 11 12  1  0  0  0  0
 12 13  1  0  0  0  0
 13 14  1  0  0  0  0
 15 14  1  1  0  0  0
 10 15  1  0  0  0  0
 15 16  1  0  0  0  0
 16 17  1  0  0  0  0
  8 17  1  0  0  0  0
 17 18  1  0  0  0  0
 19 18  1  0  0  0  0
 19 20  1  1  0  0  0
 19 21  1  0  0  0  0
 21 22  1  0  0  0  0
 22 23  1  0  0  0  0
 23 24  2  0  0  0  0
 24 25  1  0  0  0  0
 25 26  2  0  0  0  0
 26 27  1  0  0  0  0
 27 28  2  0  0  0  0
 23 28  1  0  0  0  0
 21 29  1  1  0  0  0
 29 30  1  0  0  0  0
 30 31  2  0  0  0  0
 32 30  1  0  0  0  0
 32 33  1  0  0  0  0
 33 34  1  0  0  0  0
 34 35  1  0  0  0  0
 34 36  2  0  0  0  0
 32 37  1  6  0  0  0
 37 38  1  0  0  0  0
 38 39  2  0  0  0  0
 38 40  1  0  0  0  0
 40 41  1  0  0  0  0
 41 42  2  0  0  0  0
 42 43  1  0  0  0  0
 43 44  2  0  0  0  0
 44 45  1  0  0  0  0
 45 46  2  0  0  0  0
 46 47  1  0  0  0  0
 47 48  2  0  0  0  0
 43 48  1  0  0  0  0
 48 49  1  0  0  0  0
 40 49  2  0  0  0  0
M  END
>  <StandardizerResult>
Tautomerize


>  <CdId>
223

>  <Mol Weight>
670.86

>  <Formula>
C38H50N6O5

>  <Molecule ChEMBL ID>
CHEMBL114

>  <Molecule Name>
SAQUINAVIR

>  <Molecule Max Phase>
4

>  <Molecular Weight>
670.86

>  <#RO5 Violations>
1

>  <AlogP>
3.09

>  <Compound Key>
3716

>  <Standard Type>
pKa_B1

>  <Standard Value>
7.14

>  <Comment>
'B1 Functional Group: Decahydroisoquinoline; Ionisation Formula: A0B1 (Functional Group: the part of the molecule the pKa refers to; Ionisation formula: AxBy where 'A' refers to acidic centers within the molecule that are appreciably ionised at a pH <= 11 and 'x' equals 0, 1 or 2; and 'B' refers to basic centers within the molecule that are appreciably ionised at a pH >= 2 and 'y' equals 0, 1, 2 or 3).'

>  <Potential Duplicate>
false

>  <Assay ChEMBL ID>
CHEMBL3301362

>  <Assay Description>
ASTRAZENECA: Most basic pKa value (pKa B1) determined by absorption and potentiometric titration using standard methodology from Sirius Analytical. Experimental range Bases: >= 2.

>  <Assay Type>
P

>  <BAO Format ID>
BAO_0000100

>  <BAO Label>
small-molecule physicochemical format

>  <Target ChEMBL ID>
CHEMBL2362975

>  <Target Name>
No relevant target

>  <Target Type>
NO TARGET

>  <Document ChEMBL ID>
CHEMBL3301361

>  <Source ID>
27

>  <Source Description>
AstraZeneca Deposited Data

>  <Strongest basic pKa>
8.47

>  <deltapKa>
-1.3341186868532562

>  <Strongest basic pKa_Taut>
8.47

>  <deltapKa_TAut>
-1.3341186868532562

$$$$

  Mrv1920 03272013312D          

 38 41  0  0  0  0            999 V2000
    7.1447    0.0000    0.0000 C   0  0  0  0  0  0  0  0  0  0  0  0
    7.8592   -0.4125    0.0000 N   0  0  0  0  0  0  0  0  0  0  0  0
    7.8592   -1.2375    0.0000 C   0  0  0  0  0  0  0  0  0  0  0  0
    8.5737   -1.6500    0.0000 O   0  0  0  0  0  0  0  0  0  0  0  0
    7.1447   -1.6500    0.0000 C   0  0  0  0  0  0  0  0  0  0  0  0
    7.1447   -2.4750    0.0000 C   0  0  0  0  0  0  0  0  0  0  0  0
    7.8592   -2.8875    0.0000 C   0  0  0  0  0  0  0  0  0  0  0  0
    7.8592   -3.7125    0.0000 C   0  0  0  0  0  0  0  0  0  0  0  0
    7.1447   -4.1250    0.0000 C   0  0  0  0  0  0  0  0  0  0  0  0
    7.1447   -4.9500    0.0000 S   0  0  0  0  0  0  0  0  0  0  0  0
    7.9697   -4.9500    0.0000 O   0  0  0  0  0  0  0  0  0  0  0  0
    6.3197   -4.9500    0.0000 O   0  0  0  0  0  0  0  0  0  0  0  0
    7.1447   -5.7750    0.0000 N   0  0  0  0  0  0  0  0  0  0  0  0
    6.4302   -6.1875    0.0000 C   0  0  0  0  0  0  0  0  0  0  0  0
    7.8592   -6.1875    0.0000 C   0  0  0  0  0  0  0  0  0  0  0  0
    6.4302   -3.7125    0.0000 C   0  0  0  0  0  0  0  0  0  0  0  0
    6.4302   -2.8875    0.0000 C   0  0  0  0  0  0  0  0  0  0  0  0
    8.5737    0.0000    0.0000 C   0  0  0  0  0  0  0  0  0  0  0  0
    8.5737    0.8250    0.0000 C   0  0  0  0  0  0  0  0  0  0  0  0
    9.2881    1.2375    0.0000 C   0  0  0  0  0  0  0  0  0  0  0  0
   10.0026    0.8250    0.0000 N   0  0  0  0  0  0  0  0  0  0  0  0
   10.7171    1.2375    0.0000 C   0  0  0  0  0  0  0  0  0  0  0  0
   11.4315    0.8250    0.0000 C   0  0  0  0  0  0  0  0  0  0  0  0
   12.1460    1.2375    0.0000 C   0  0  0  0  0  0  0  0  0  0  0  0
   12.1460    2.0625    0.0000 C   0  0  0  0  0  0  0  0  0  0  0  0
   11.4315    2.4750    0.0000 C   0  0  0  0  0  0  0  0  0  0  0  0
   11.4315    3.3000    0.0000 C   0  0  0  0  0  0  0  0  0  0  0  0
   12.1460    3.7125    0.0000 C   0  0  0  0  0  0  0  0  0  0  0  0
   12.8605    3.3000    0.0000 C   0  0  0  0  0  0  0  0  0  0  0  0
   12.8605    2.4750    0.0000 C   0  0  0  0  0  0  0  0  0  0  0  0
   12.8605    0.8250    0.0000 C   0  0  0  0  0  0  0  0  0  0  0  0
   13.5749    1.2375    0.0000 C   0  0  0  0  0  0  0  0  0  0  0  0
   14.2894    0.8250    0.0000 C   0  0  0  0  0  0  0  0  0  0  0  0
   14.2894    0.0000    0.0000 C   0  0  0  0  0  0  0  0  0  0  0  0
   13.5749   -0.4125    0.0000 C   0  0  0  0  0  0  0  0  0  0  0  0
   12.8605    0.0000    0.0000 C   0  0  0  0  0  0  0  0  0  0  0  0
   10.0026    0.0000    0.0000 C   0  0  0  0  0  0  0  0  0  0  0  0
    9.2881   -0.4125    0.0000 C   0  0  0  0  0  0  0  0  0  0  0  0
  1  2  1  0  0  0  0
  2  3  1  0  0  0  0
  3  4  2  0  0  0  0
  3  5  1  0  0  0  0
  5  6  1  0  0  0  0
  6  7  2  0  0  0  0
  7  8  1  0  0  0  0
  8  9  2  0  0  0  0
  9 10  1  0  0  0  0
 10 11  2  0  0  0  0
 10 12  2  0  0  0  0
 10 13  1  0  0  0  0
 13 14  1  0  0  0  0
 13 15  1  0  0  0  0
  9 16  1  0  0  0  0
 16 17  2  0  0  0  0
  6 17  1  0  0  0  0
  2 18  1  0  0  0  0
 18 19  1  0  0  0  0
 19 20  1  0  0  0  0
 20 21  1  0  0  0  0
 21 22  1  0  0  0  0
 22 23  1  0  0  0  0
 23 24  1  0  0  0  0
 24 25  1  0  0  0  0
 25 26  2  0  0  0  0
 26 27  1  0  0  0  0
 27 28  2  0  0  0  0
 28 29  1  0  0  0  0
 29 30  2  0  0  0  0
 25 30  1  0  0  0  0
 24 31  1  0  0  0  0
 31 32  2  0  0  0  0
 32 33  1  0  0  0  0
 33 34  2  0  0  0  0
 34 35  1  0  0  0  0
 35 36  2  0  0  0  0
 31 36  1  0  0  0  0
 21 37  1  0  0  0  0
 37 38  1  0  0  0  0
 18 38  1  0  0  0  0
M  END
>  <StandardizerResult>
Tautomerize


>  <CdId>
97

>  <Mol Weight>
533.73

>  <Formula>
C31H39N3O3S

>  <Molecule ChEMBL ID>
CHEMBL179858

>  <Molecule Max Phase>
0

>  <Molecular Weight>
533.74

>  <#RO5 Violations>
1

>  <AlogP>
4.62

>  <Compound Key>
867

>  <Standard Type>
pKa_B1

>  <Standard Value>
8.1

>  <Comment>
'B1 Functional Group: Piperidine; Ionisation Formula: A0B1 (Functional Group: the part of the molecule the pKa refers to; Ionisation formula: AxBy where 'A' refers to acidic centers within the molecule that are appreciably ionised at a pH <= 11 and 'x' equals 0, 1 or 2; and 'B' refers to basic centers within the molecule that are appreciably ionised at a pH >= 2 and 'y' equals 0, 1, 2 or 3).'

>  <Potential Duplicate>
false

>  <Assay ChEMBL ID>
CHEMBL3301362

>  <Assay Description>
ASTRAZENECA: Most basic pKa value (pKa B1) determined by absorption and potentiometric titration using standard methodology from Sirius Analytical. Experimental range Bases: >= 2.

>  <Assay Type>
P

>  <BAO Format ID>
BAO_0000100

>  <BAO Label>
small-molecule physicochemical format

>  <Target ChEMBL ID>
CHEMBL2362975

>  <Target Name>
No relevant target

>  <Target Type>
NO TARGET

>  <Document ChEMBL ID>
CHEMBL3301361

>  <Source ID>
27

>  <Source Description>
AstraZeneca Deposited Data

>  <Strongest basic pKa>
9.42

>  <deltapKa>
-1.317551130428681

>  <Strongest basic pKa_Taut>
9.42

>  <deltapKa_TAut>
-1.317551130428681

$$$$

  Mrv1920 03272013312D          

 26 27  0  0  0  0            999 V2000
   -1.2079    5.7750    0.0000 C   0  0  0  0  0  0  0  0  0  0  0  0
   -1.2079    4.9500    0.0000 C   0  0  0  0  0  0  0  0  0  0  0  0
   -0.4934    4.5375    0.0000 N   0  0  0  0  0  0  0  0  0  0  0  0
    0.2211    4.9500    0.0000 C   0  0  0  0  0  0  0  0  0  0  0  0
    0.9355    4.5375    0.0000 C   0  0  0  0  0  0  0  0  0  0  0  0
   -0.4934    3.7125    0.0000 C   0  0  0  0  0  0  0  0  0  0  0  0
    0.2211    3.3000    0.0000 C   0  0  0  0  0  0  0  0  0  0  0  0
    0.9355    2.8875    0.0000 C   0  0  0  0  0  0  0  0  0  0  0  0
    1.6500    2.4750    0.0000 C   0  0  0  0  0  0  0  0  0  0  0  0
    1.6500    1.6500    0.0000 O   0  0  0  0  0  0  0  0  0  0  0  0
    2.3645    1.2375    0.0000 C   0  0  0  0  0  0  0  0  0  0  0  0
    3.0789    1.6500    0.0000 O   0  0  0  0  0  0  0  0  0  0  0  0
    2.3645    0.4125    0.0000 C   0  0  0  0  0  0  0  0  0  0  0  0
    1.5395    0.4125    0.0000 O   0  0  0  0  0  0  0  0  0  0  0  0
    2.3645   -0.4125    0.0000 C   0  0  0  0  0  0  0  0  0  0  0  0
    3.0789   -0.8250    0.0000 C   0  0  0  0  0  0  0  0  0  0  0  0
    3.0789   -1.6500    0.0000 C   0  0  0  0  0  0  0  0  0  0  0  0
    2.3645   -2.0625    0.0000 C   0  0  0  0  0  0  0  0  0  0  0  0
    1.6500   -1.6500    0.0000 C   0  0  0  0  0  0  0  0  0  0  0  0
    1.6500   -0.8250    0.0000 C   0  0  0  0  0  0  0  0  0  0  0  0
    3.1895    0.4125    0.0000 C   0  0  0  0  0  0  0  0  0  0  0  0
    3.6020    1.1270    0.0000 C   0  0  0  0  0  0  0  0  0  0  0  0
    4.4270    1.1270    0.0000 C   0  0  0  0  0  0  0  0  0  0  0  0
    4.8395    0.4125    0.0000 C   0  0  0  0  0  0  0  0  0  0  0  0
    4.4270   -0.3020    0.0000 C   0  0  0  0  0  0  0  0  0  0  0  0
    3.6020   -0.3020    0.0000 C   0  0  0  0  0  0  0  0  0  0  0  0
  1  2  1  0  0  0  0
  2  3  1  0  0  0  0
  3  4  1  0  0  0  0
  4  5  1  0  0  0  0
  3  6  1  0  0  0  0
  6  7  1  0  0  0  0
  7  8  3  0  0  0  0
  8  9  1  0  0  0  0
  9 10  1  0  0  0  0
 10 11  1  0  0  0  0
 11 12  2  0  0  0  0
 11 13  1  0  0  0  0
 13 14  1  0  0  0  0
 13 15  1  0  0  0  0
 15 16  2  0  0  0  0
 16 17  1  0  0  0  0
 17 18  2  0  0  0  0
 18 19  1  0  0  0  0
 19 20  2  0  0  0  0
 15 20  1  0  0  0  0
 13 21  1  0  0  0  0
 21 22  1  0  0  0  0
 22 23  1  0  0  0  0
 23 24  1  0  0  0  0
 24 25  1  0  0  0  0
 25 26  1  0  0  0  0
 21 26  1  0  0  0  0
M  END
>  <StandardizerResult>
Tautomerize


>  <CdId>
105

>  <Mol Weight>
357.49

>  <Formula>
C22H31NO3

>  <Molecule ChEMBL ID>
CHEMBL1231

>  <Molecule Name>
OXYBUTYNIN

>  <Molecule Max Phase>
4

>  <Molecular Weight>
357.49

>  <#RO5 Violations>
0

>  <AlogP>
3.34

>  <Compound Key>
1379

>  <Standard Type>
pKa_B1

>  <Standard Value>
7.5

>  <Comment>
'B1 Functional Group: Tertiary amine; Ionisation Formula: A0B1 (Functional Group: the part of the molecule the pKa refers to; Ionisation formula: AxBy where 'A' refers to acidic centers within the molecule that are appreciably ionised at a pH <= 11 and 'x' equals 0, 1 or 2; and 'B' refers to basic centers within the molecule that are appreciably ionised at a pH >= 2 and 'y' equals 0, 1, 2 or 3).'

>  <Potential Duplicate>
false

>  <Assay ChEMBL ID>
CHEMBL3301362

>  <Assay Description>
ASTRAZENECA: Most basic pKa value (pKa B1) determined by absorption and potentiometric titration using standard methodology from Sirius Analytical. Experimental range Bases: >= 2.

>  <Assay Type>
P

>  <BAO Format ID>
BAO_0000100

>  <BAO Label>
small-molecule physicochemical format

>  <Target ChEMBL ID>
CHEMBL2362975

>  <Target Name>
No relevant target

>  <Target Type>
NO TARGET

>  <Document ChEMBL ID>
CHEMBL3301361

>  <Source ID>
27

>  <Source Description>
AstraZeneca Deposited Data

>  <Strongest basic pKa>
8.77

>  <deltapKa>
-1.2669321597885457

>  <Strongest basic pKa_Taut>
8.77

>  <deltapKa_TAut>
-1.2669321597885457

$$$$

  Mrv1920 03272013312D          

 21 23  0  0  0  0            999 V2000
    2.3747    3.6320    0.0000 C   0  0  0  0  0  0  0  0  0  0  0  0
    2.3747    2.8070    0.0000 N   0  0  0  0  0  0  0  0  0  0  0  0
    1.6603    2.3945    0.0000 C   0  0  0  0  0  0  0  0  0  0  0  0
    3.0892    2.3945    0.0000 C   0  0  0  0  0  0  0  0  0  0  0  0
    3.0892    1.5695    0.0000 C   0  0  0  0  0  0  0  0  0  0  0  0
    3.8037    1.1570    0.0000 C   0  0  0  0  0  0  0  0  0  0  0  0
    3.8037    0.3320    0.0000 C   0  0  0  0  0  0  0  0  0  0  0  0
    4.5470   -0.0260    0.0000 C   0  0  0  0  0  0  0  0  0  0  0  0
    5.1517    0.5352    0.0000 C   0  0  0  0  0  0  0  0  0  0  0  0
    5.9401    0.2920    0.0000 C   0  0  0  0  0  0  0  0  0  0  0  0
    6.1237   -0.5123    0.0000 C   0  0  0  0  0  0  0  0  0  0  0  0
    5.5189   -1.0735    0.0000 C   0  0  0  0  0  0  0  0  0  0  0  0
    4.7305   -0.8303    0.0000 C   0  0  0  0  0  0  0  0  0  0  0  0
    4.2162   -1.4753    0.0000 C   0  0  0  0  0  0  0  0  0  0  0  0
    3.3912   -1.4753    0.0000 O   0  0  0  0  0  0  0  0  0  0  0  0
    2.8768   -0.8303    0.0000 C   0  0  0  0  0  0  0  0  0  0  0  0
    2.0884   -1.0735    0.0000 C   0  0  0  0  0  0  0  0  0  0  0  0
    1.4837   -0.5123    0.0000 C   0  0  0  0  0  0  0  0  0  0  0  0
    1.6673    0.2920    0.0000 C   0  0  0  0  0  0  0  0  0  0  0  0
    2.4556    0.5352    0.0000 C   0  0  0  0  0  0  0  0  0  0  0  0
    3.0604   -0.0260    0.0000 C   0  0  0  0  0  0  0  0  0  0  0  0
  1  2  1  0  0  0  0
  2  3  1  0  0  0  0
  2  4  1  0  0  0  0
  4  5  1  0  0  0  0
  6  5  1  4  0  0  0
  6  7  2  0  0  0  0
  7  8  1  0  0  0  0
  8  9  2  0  0  0  0
  9 10  1  0  0  0  0
 10 11  2  0  0  0  0
 11 12  1  0  0  0  0
 12 13  2  0  0  0  0
  8 13  1  0  0  0  0
 13 14  1  0  0  0  0
 14 15  1  0  0  0  0
 15 16  1  0  0  0  0
 16 17  2  0  0  0  0
 17 18  1  0  0  0  0
 18 19  2  0  0  0  0
 19 20  1  0  0  0  0
 20 21  2  0  0  0  0
 16 21  1  0  0  0  0
  7 21  1  0  0  0  0
M  END
>  <StandardizerResult>
Tautomerize


>  <CdId>
186

>  <Mol Weight>
279.38

>  <Formula>
C19H21NO

>  <Molecule ChEMBL ID>
CHEMBL1628227

>  <Molecule Name>
DOXEPIN

>  <Molecule Max Phase>
4

>  <Molecular Weight>
279.38

>  <#RO5 Violations>
0

>  <AlogP>
3.96

>  <Compound Key>
2999

>  <Standard Type>
pKa_B1

>  <Standard Value>
8.5

>  <Comment>
'B1 Functional Group: Tertiary amine; Ionisation Formula: A0B1 (Functional Group: the part of the molecule the pKa refers to; Ionisation formula: AxBy where 'A' refers to acidic centers within the molecule that are appreciably ionised at a pH <= 11 and 'x' equals 0, 1 or 2; and 'B' refers to basic centers within the molecule that are appreciably ionised at a pH >= 2 and 'y' equals 0, 1, 2 or 3).'

>  <Potential Duplicate>
false

>  <Assay ChEMBL ID>
CHEMBL3301362

>  <Assay Description>
ASTRAZENECA: Most basic pKa value (pKa B1) determined by absorption and potentiometric titration using standard methodology from Sirius Analytical. Experimental range Bases: >= 2.

>  <Assay Type>
P

>  <BAO Format ID>
BAO_0000100

>  <BAO Label>
small-molecule physicochemical format

>  <Target ChEMBL ID>
CHEMBL2362975

>  <Target Name>
No relevant target

>  <Target Type>
NO TARGET

>  <Document ChEMBL ID>
CHEMBL3301361

>  <Source ID>
27

>  <Source Description>
AstraZeneca Deposited Data

>  <Strongest basic pKa>
9.76

>  <deltapKa>
-1.2607382987495086

>  <Strongest basic pKa_Taut>
9.76

>  <deltapKa_TAut>
-1.2607382987495086

$$$$

  Mrv1920 03272013312D          

 32 37  0  0  0  0            999 V2000
    0.1374   -5.3710    0.0000 C   0  0  0  0  0  0  0  0  0  0  0  0
   -0.5771   -4.9586    0.0000 C   0  0  0  0  0  0  0  0  0  0  0  0
   -1.2915   -5.3711    0.0000 C   0  0  0  0  0  0  0  0  0  0  0  0
   -2.0060   -4.9587    0.0000 C   0  0  0  0  0  0  0  0  0  0  0  0
   -2.0060   -4.1337    0.0000 C   0  0  0  0  0  0  0  0  0  0  0  0
   -2.7205   -3.7212    0.0000 C   0  0  0  0  0  0  0  0  0  0  0  0
   -2.7206   -2.8962    0.0000 O   0  0  0  0  0  0  0  0  0  0  0  0
   -3.4350   -4.1337    0.0000 N   0  0  0  0  0  0  0  0  0  0  0  0
   -4.0895   -3.6315    0.0000 C   0  0  0  0  0  0  0  0  0  0  0  0
   -4.9075   -3.7393    0.0000 C   0  0  0  0  0  0  0  0  0  0  0  0
   -5.4097   -4.3938    0.0000 C   0  0  0  0  0  0  0  0  0  0  0  0
   -5.3019   -5.2118    0.0000 N   0  0  0  0  0  0  0  0  0  0  0  0
   -4.6474   -5.7139    0.0000 C   0  0  0  0  0  0  0  0  0  0  0  0
   -3.8295   -5.6062    0.0000 C   0  0  0  0  0  0  0  0  0  0  0  0
   -3.3273   -4.9517    0.0000 C   0  0  0  0  0  0  0  0  0  0  0  0
   -4.1351   -4.5380    0.0000 O   0  0  0  0  0  0  0  0  0  0  0  0
   -1.2916   -3.7211    0.0000 C   0  0  0  0  0  0  0  0  0  0  0  0
   -0.5771   -4.1336    0.0000 C   0  0  0  0  0  0  0  0  0  0  0  0
    0.1373   -3.7210    0.0000 N   0  0  0  0  0  0  0  0  0  0  0  0
    0.1373   -2.8960    0.0000 C   0  0  0  0  0  0  0  0  0  0  0  0
   -0.5772   -2.4836    0.0000 O   0  0  0  0  0  0  0  0  0  0  0  0
    0.8517   -2.4835    0.0000 C   0  0  0  0  0  0  0  0  0  0  0  0
    0.8517   -1.6585    0.0000 C   0  0  0  0  0  0  0  0  0  0  0  0
    0.1163   -2.0322    0.0000 C   0  0  0  0  0  0  0  0  0  0  0  0
    0.5657   -1.2419    0.0000 C   0  0  0  0  0  0  0  0  0  0  0  0
    0.5657   -0.4945    0.0000 C   0  0  0  0  0  0  0  0  0  0  0  0
    1.3012   -0.1208    0.0000 C   0  0  0  0  0  0  0  0  0  0  0  0
    2.0368   -0.4945    0.0000 C   0  0  0  0  0  0  0  0  0  0  0  0
    2.0368   -1.2419    0.0000 C   0  0  0  0  0  0  0  0  0  0  0  0
    1.3012   -1.6156    0.0000 C   0  0  0  0  0  0  0  0  0  0  0  0
    1.5873   -2.0322    0.0000 C   0  0  0  0  0  0  0  0  0  0  0  0
    0.8517   -0.9111    0.0000 C   0  0  0  0  0  0  0  0  0  0  0  0
  1  2  1  0  0  0  0
  2  3  2  0  0  0  0
  3  4  1  0  0  0  0
  4  5  2  0  0  0  0
  5  6  1  0  0  0  0
  6  7  2  0  0  0  0
  6  8  1  0  0  0  0
  8  9  1  0  0  0  0
  9 10  1  0  0  0  0
 10 11  1  0  0  0  0
 11 12  1  0  0  0  0
 12 13  1  0  0  0  0
 13 14  1  0  0  0  0
 14 15  1  0  0  0  0
  8 15  1  0  0  0  0
 14 16  1  0  0  0  0
 10 16  1  0  0  0  0
  5 17  1  0  0  0  0
 17 18  2  0  0  0  0
  2 18  1  0  0  0  0
 18 19  1  0  0  0  0
 19 20  1  0  0  0  0
 20 21  2  0  0  0  0
 20 22  1  0  0  0  0
 22 23  1  0  0  0  0
 23 24  1  0  0  0  0
 24 25  1  0  0  0  0
 27 32  1  0  0  0  0
 26 27  1  0  0  0  0
 27 28  1  0  0  0  0
 23 31  1  0  0  0  0
 29 30  1  0  0  0  0
 25 30  1  0  0  0  0
 29 31  1  0  0  0  0
 28 29  1  0  0  0  0
 25 26  1  0  0  0  0
 23 32  1  0  0  0  0
M  END
>  <StandardizerResult>
Tautomerize


>  <CdId>
50

>  <Mol Weight>
437.58

>  <Formula>
C26H35N3O3

>  <Molecule ChEMBL ID>
CHEMBL550637

>  <Molecule Max Phase>
0

>  <Molecular Weight>
437.58

>  <#RO5 Violations>
0

>  <AlogP>
3.35

>  <Compound Key>
2170

>  <Standard Type>
pKa_B1

>  <Standard Value>
7.18

>  <Comment>
'B1 Functional Group: 1-(9-Oxa-3,7-diazabicyclo[3.3.1]non-3-yl)ethanone; Ionisation Formula: A0B1 (Functional Group: the part of the molecule the pKa refers to; Ionisation formula: AxBy where 'A' refers to acidic centers within the molecule that are appreciably ionised at a pH <= 11 and 'x' equals 0, 1 or 2; and 'B' refers to basic centers within the molecule that are appreciably ionised at a pH >= 2 and 'y' equals 0, 1, 2 or 3).'

>  <Potential Duplicate>
false

>  <Assay ChEMBL ID>
CHEMBL3301362

>  <Assay Description>
ASTRAZENECA: Most basic pKa value (pKa B1) determined by absorption and potentiometric titration using standard methodology from Sirius Analytical. Experimental range Bases: >= 2.

>  <Assay Type>
P

>  <BAO Format ID>
BAO_0000100

>  <BAO Label>
small-molecule physicochemical format

>  <Target ChEMBL ID>
CHEMBL2362975

>  <Target Name>
No relevant target

>  <Target Type>
NO TARGET

>  <Document ChEMBL ID>
CHEMBL3301361

>  <Source ID>
27

>  <Source Description>
AstraZeneca Deposited Data

>  <Strongest basic pKa>
8.39

>  <deltapKa>
-1.2059479609922068

>  <Strongest basic pKa_Taut>
8.39

>  <deltapKa_TAut>
-1.2059479609922068

$$$$

  Mrv1920 03272013312D          

 18 19  0  0  0  0            999 V2000
   -2.2673    1.8818    0.0000 C   0  0  0  0  0  0  0  0  0  0  0  0
   -1.4604    1.7103    0.0000 N   0  0  0  0  0  0  0  0  0  0  0  0
   -0.9083    2.3234    0.0000 C   0  0  0  0  0  0  0  0  0  0  0  0
   -1.2054    0.9256    0.0000 C   0  0  0  0  0  0  0  0  0  0  0  0
   -0.3984    0.7541    0.0000 C   0  0  0  0  0  0  0  0  0  0  0  0
   -0.1435   -0.0305    0.0000 N   0  0  0  0  0  0  0  0  0  0  0  0
   -0.6284   -0.6979    0.0000 C   0  0  0  0  0  0  0  0  0  0  0  0
   -0.1435   -1.3654    0.0000 N   0  0  0  0  0  0  0  0  0  0  0  0
    0.6411   -1.1104    0.0000 C   0  0  0  0  0  0  0  0  0  0  0  0
    0.6411   -0.2854    0.0000 C   0  0  0  0  0  0  0  0  0  0  0  0
    1.3556    0.1271    0.0000 C   0  0  0  0  0  0  0  0  0  0  0  0
    1.3556    0.9521    0.0000 O   0  0  0  0  0  0  0  0  0  0  0  0
    2.0701   -0.2854    0.0000 N   0  0  0  0  0  0  0  0  0  0  0  0
    2.7845    0.1271    0.0000 C   0  0  0  0  0  0  0  0  0  0  0  0
    2.0701   -1.1104    0.0000 C   0  0  0  0  0  0  0  0  0  0  0  0
    2.7845   -1.5229    0.0000 O   0  0  0  0  0  0  0  0  0  0  0  0
    1.3556   -1.5229    0.0000 N   0  0  0  0  0  0  0  0  0  0  0  0
    1.3556   -2.3479    0.0000 C   0  0  0  0  0  0  0  0  0  0  0  0
  1  2  1  0  0  0  0
  2  3  1  0  0  0  0
  2  4  1  0  0  0  0
  4  5  1  0  0  0  0
  5  6  1  0  0  0  0
  6  7  1  0  0  0  0
  7  8  2  0  0  0  0
  8  9  1  0  0  0  0
  9 10  2  0  0  0  0
  6 10  1  0  0  0  0
 10 11  1  0  0  0  0
 11 12  2  0  0  0  0
 11 13  1  0  0  0  0
 13 14  1  0  0  0  0
 13 15  1  0  0  0  0
 15 16  2  0  0  0  0
 15 17  1  0  0  0  0
  9 17  1  0  0  0  0
 17 18  1  0  0  0  0
M  END
>  <StandardizerResult>
Tautomerize


>  <CdId>
129

>  <Mol Weight>
251.29

>  <Formula>
C11H17N5O2

>  <Molecule ChEMBL ID>
CHEMBL1739955

>  <Molecule Name>
DIMETHAZAN

>  <Molecule Max Phase>
0

>  <Molecular Weight>
251.29

>  <#RO5 Violations>
0

>  <AlogP>
-1.0

>  <Compound Key>
1448

>  <Standard Type>
pKa_B1

>  <Standard Value>
7.5

>  <Comment>
'B1 Functional Group: Tertiary amine; Ionisation Formula: A0B1 (Functional Group: the part of the molecule the pKa refers to; Ionisation formula: AxBy where 'A' refers to acidic centers within the molecule that are appreciably ionised at a pH <= 11 and 'x' equals 0, 1 or 2; and 'B' refers to basic centers within the molecule that are appreciably ionised at a pH >= 2 and 'y' equals 0, 1, 2 or 3).'

>  <Potential Duplicate>
false

>  <Assay ChEMBL ID>
CHEMBL3301362

>  <Assay Description>
ASTRAZENECA: Most basic pKa value (pKa B1) determined by absorption and potentiometric titration using standard methodology from Sirius Analytical. Experimental range Bases: >= 2.

>  <Assay Type>
P

>  <BAO Format ID>
BAO_0000100

>  <BAO Label>
small-molecule physicochemical format

>  <Target ChEMBL ID>
CHEMBL2362975

>  <Target Name>
No relevant target

>  <Target Type>
NO TARGET

>  <Document ChEMBL ID>
CHEMBL3301361

>  <Source ID>
27

>  <Source Description>
AstraZeneca Deposited Data

>  <Strongest basic pKa>
8.65

>  <deltapKa>
-1.151787094990345

>  <Strongest basic pKa_Taut>
8.65

>  <deltapKa_TAut>
-1.151787094990345

$$$$

  Mrv1920 03272013312D          

 23 24  0  0  1  0            999 V2000
    0.7145   -6.1875    0.0000 C   0  0  0  0  0  0  0  0  0  0  0  0
    1.4289   -6.6000    0.0000 C   0  0  0  0  0  0  0  0  0  0  0  0
    2.1434   -6.1875    0.0000 C   0  0  2  0  0  0  0  0  0  0  0  0
    2.1434   -5.3625    0.0000 N   0  0  0  0  0  0  0  0  0  0  0  0
    2.8579   -6.6000    0.0000 C   0  0  0  0  0  0  0  0  0  0  0  0
    2.8579   -7.4250    0.0000 O   0  0  0  0  0  0  0  0  0  0  0  0
    3.5724   -6.1875    0.0000 N   0  0  0  0  0  0  0  0  0  0  0  0
    4.2868   -6.6000    0.0000 C   0  0  2  0  0  0  0  0  0  0  0  0
    4.2868   -7.4250    0.0000 C   0  0  0  0  0  0  0  0  0  0  0  0
    4.2868   -8.2500    0.0000 N   0  0  0  0  0  0  0  0  0  0  0  0
    5.0013   -6.1875    0.0000 C   0  0  0  0  0  0  0  0  0  0  0  0
    5.7158   -6.6000    0.0000 C   0  0  0  0  0  0  0  0  0  0  0  0
    6.4302   -6.1875    0.0000 C   0  0  0  0  0  0  0  0  0  0  0  0
    7.1447   -6.6000    0.0000 C   0  0  0  0  0  0  0  0  0  0  0  0
    7.1447   -7.4250    0.0000 C   0  0  0  0  0  0  0  0  0  0  0  0
    7.8592   -7.8375    0.0000 C   0  0  0  0  0  0  0  0  0  0  0  0
    8.5737   -7.4250    0.0000 C   0  0  0  0  0  0  0  0  0  0  0  0
    9.2881   -7.8375    0.0000 C   0  0  0  0  0  0  0  0  0  0  0  0
    9.2881   -8.6625    0.0000 C   0  0  0  0  0  0  0  0  0  0  0  0
    8.5737   -9.0750    0.0000 C   0  0  0  0  0  0  0  0  0  0  0  0
    7.8592   -8.6625    0.0000 C   0  0  0  0  0  0  0  0  0  0  0  0
    6.4302   -7.8375    0.0000 C   0  0  0  0  0  0  0  0  0  0  0  0
    5.7158   -7.4250    0.0000 C   0  0  0  0  0  0  0  0  0  0  0  0
  1  2  1  0  0  0  0
  3  2  1  0  0  0  0
  3  4  1  6  0  0  0
  3  5  1  0  0  0  0
  5  6  2  0  0  0  0
  5  7  1  0  0  0  0
  8  7  1  1  0  0  0
  8  9  1  0  0  0  0
  9 10  3  0  0  0  0
  8 11  1  0  0  0  0
 11 12  1  0  0  0  0
 12 13  2  0  0  0  0
 13 14  1  0  0  0  0
 14 15  2  0  0  0  0
 15 16  1  0  0  0  0
 16 17  2  0  0  0  0
 17 18  1  0  0  0  0
 18 19  2  0  0  0  0
 19 20  1  0  0  0  0
 20 21  2  0  0  0  0
 16 21  1  0  0  0  0
 15 22  1  0  0  0  0
 22 23  2  0  0  0  0
 12 23  1  0  0  0  0
M  END
>  <StandardizerResult>
Tautomerize


>  <CdId>
104

>  <Mol Weight>
307.4

>  <Formula>
C19H21N3O

>  <Molecule ChEMBL ID>
CHEMBL212521

>  <Molecule Max Phase>
0

>  <Molecular Weight>
307.4

>  <#RO5 Violations>
0

>  <AlogP>
2.64

>  <Compound Key>
3931

>  <Standard Type>
pKa_B1

>  <Standard Value>
7.3

>  <Comment>
'B1 Functional Group: Primary amine; Ionisation Formula: A0B1 (Functional Group: the part of the molecule the pKa refers to; Ionisation formula: AxBy where 'A' refers to acidic centers within the molecule that are appreciably ionised at a pH <= 11 and 'x' equals 0, 1 or 2; and 'B' refers to basic centers within the molecule that are appreciably ionised at a pH >= 2 and 'y' equals 0, 1, 2 or 3).'

>  <Potential Duplicate>
false

>  <Assay ChEMBL ID>
CHEMBL3301362

>  <Assay Description>
ASTRAZENECA: Most basic pKa value (pKa B1) determined by absorption and potentiometric titration using standard methodology from Sirius Analytical. Experimental range Bases: >= 2.

>  <Assay Type>
P

>  <BAO Format ID>
BAO_0000100

>  <BAO Label>
small-molecule physicochemical format

>  <Target ChEMBL ID>
CHEMBL2362975

>  <Target Name>
No relevant target

>  <Target Type>
NO TARGET

>  <Document ChEMBL ID>
CHEMBL3301361

>  <Source ID>
27

>  <Source Description>
AstraZeneca Deposited Data

>  <Strongest basic pKa>
8.45

>  <deltapKa>
-1.1465812831725524

>  <Strongest basic pKa_Taut>
8.45

>  <deltapKa_TAut>
-1.1465812831725524

$$$$

  Mrv1920 03272013312D          

 23 25  0  0  0  0            999 V2000
    2.8579   -1.6500    0.0000 C   0  0  0  0  0  0  0  0  0  0  0  0
    3.5724   -2.0625    0.0000 C   0  0  0  0  0  0  0  0  0  0  0  0
    4.2868   -1.6500    0.0000 C   0  0  0  0  0  0  0  0  0  0  0  0
    4.2868   -0.8250    0.0000 O   0  0  0  0  0  0  0  0  0  0  0  0
    5.0013   -2.0625    0.0000 N   0  0  0  0  0  0  0  0  0  0  0  0
    5.7158   -1.6500    0.0000 C   0  0  0  0  0  0  0  0  0  0  0  0
    5.7158   -0.8250    0.0000 C   0  0  0  0  0  0  0  0  0  0  0  0
    5.0483   -0.3401    0.0000 C   0  0  0  0  0  0  0  0  0  0  0  0
    5.3033    0.4445    0.0000 C   0  0  0  0  0  0  0  0  0  0  0  0
    6.1283    0.4445    0.0000 C   0  0  0  0  0  0  0  0  0  0  0  0
    6.3832   -0.3401    0.0000 S   0  0  0  0  0  0  0  0  0  0  0  0
    6.4302   -2.0625    0.0000 C   0  0  0  0  0  0  0  0  0  0  0  0
    7.1447   -1.6500    0.0000 C   0  0  0  0  0  0  0  0  0  0  0  0
    7.8592   -2.0625    0.0000 C   0  0  0  0  0  0  0  0  0  0  0  0
    8.5737   -1.6500    0.0000 Cl  0  0  0  0  0  0  0  0  0  0  0  0
    7.8592   -2.8875    0.0000 C   0  0  0  0  0  0  0  0  0  0  0  0
    8.5737   -3.3000    0.0000 C   0  0  0  0  0  0  0  0  0  0  0  0
    8.5737   -4.1250    0.0000 C   0  0  0  0  0  0  0  0  0  0  0  0
    7.8592   -4.5375    0.0000 C   0  0  0  0  0  0  0  0  0  0  0  0
    7.1447   -4.1250    0.0000 N   0  0  0  0  0  0  0  0  0  0  0  0
    7.1447   -3.3000    0.0000 C   0  0  0  0  0  0  0  0  0  0  0  0
    6.4302   -2.8875    0.0000 C   0  0  0  0  0  0  0  0  0  0  0  0
    5.7158   -3.3000    0.0000 O   0  0  0  0  0  0  0  0  0  0  0  0
  1  2  1  0  0  0  0
  2  3  1  0  0  0  0
  3  4  2  0  0  0  0
  3  5  1  0  0  0  0
  5  6  1  0  0  0  0
  6  7  1  0  0  0  0
  7  8  2  0  0  0  0
  8  9  1  0  0  0  0
  9 10  2  0  0  0  0
 10 11  1  0  0  0  0
  7 11  1  0  0  0  0
  6 12  1  0  0  0  0
 12 13  1  0  0  0  0
 13 14  2  0  0  0  0
 14 15  1  0  0  0  0
 14 16  1  0  0  0  0
 16 17  2  0  0  0  0
 17 18  1  0  0  0  0
 18 19  2  0  0  0  0
 19 20  1  0  0  0  0
 20 21  2  0  0  0  0
 16 21  1  0  0  0  0
 21 22  1  0  0  0  0
 12 22  2  0  0  0  0
 22 23  1  0  0  0  0
M  END
>  <StandardizerResult>
Tautomerize


>  <CdId>
26

>  <Mol Weight>
346.83

>  <Formula>
C17H15ClN2O2S

>  <Molecule ChEMBL ID>
CHEMBL1405150

>  <Molecule Max Phase>
0

>  <Molecular Weight>
346.84

>  <#RO5 Violations>
0

>  <AlogP>
4.27

>  <Compound Key>
5740

>  <Standard Type>
pKa_B1

>  <Standard Value>
2.5

>  <Comment>
'B1 Functional Group: Quinolin-8-ol; Ionisation Formula: A1B1 (Functional Group: the part of the molecule the pKa refers to; Ionisation formula: AxBy where 'A' refers to acidic centers within the molecule that are appreciably ionised at a pH <= 11 and 'x' equals 0, 1 or 2; and 'B' refers to basic centers within the molecule that are appreciably ionised at a pH >= 2 and 'y' equals 0, 1, 2 or 3).'

>  <Potential Duplicate>
false

>  <Assay ChEMBL ID>
CHEMBL3301362

>  <Assay Description>
ASTRAZENECA: Most basic pKa value (pKa B1) determined by absorption and potentiometric titration using standard methodology from Sirius Analytical. Experimental range Bases: >= 2.

>  <Assay Type>
P

>  <BAO Format ID>
BAO_0000100

>  <BAO Label>
small-molecule physicochemical format

>  <Target ChEMBL ID>
CHEMBL2362975

>  <Target Name>
No relevant target

>  <Target Type>
NO TARGET

>  <Document ChEMBL ID>
CHEMBL3301361

>  <Source ID>
27

>  <Source Description>
AstraZeneca Deposited Data

>  <Strongest basic pKa>
3.64

>  <deltapKa>
-1.1391533041009594

>  <Strongest basic pKa_Taut>
3.64

>  <deltapKa_TAut>
-1.1391533041009594

$$$$

  Mrv1920 03272013312D          

 23 25  0  0  0  0            999 V2000
    5.7158    0.0000    0.0000 C   0  0  0  0  0  0  0  0  0  0  0  0
    5.0013   -0.4125    0.0000 O   0  0  0  0  0  0  0  0  0  0  0  0
    5.0013   -1.2375    0.0000 C   0  0  0  0  0  0  0  0  0  0  0  0
    5.7158   -1.6500    0.0000 C   0  0  0  0  0  0  0  0  0  0  0  0
    5.7158   -2.4750    0.0000 C   0  0  0  0  0  0  0  0  0  0  0  0
    5.0013   -2.8875    0.0000 N   0  0  0  0  0  0  0  0  0  0  0  0
    4.2868   -2.4750    0.0000 C   0  0  0  0  0  0  0  0  0  0  0  0
    3.5724   -2.8875    0.0000 N   0  0  0  0  0  0  0  0  0  0  0  0
    2.8579   -2.4750    0.0000 C   0  0  0  0  0  0  0  0  0  0  0  0
    2.1434   -2.8875    0.0000 C   0  0  0  0  0  0  0  0  0  0  0  0
    1.4289   -2.4750    0.0000 C   0  0  0  0  0  0  0  0  0  0  0  0
    1.4289   -1.6500    0.0000 N   0  0  0  0  0  0  0  0  0  0  0  0
    0.7145   -1.2375    0.0000 C   0  0  0  0  0  0  0  0  0  0  0  0
    0.0000   -1.6500    0.0000 O   0  0  0  0  0  0  0  0  0  0  0  0
    0.7145   -0.4125    0.0000 C   0  0  0  0  0  0  0  0  0  0  0  0
    0.0000    0.0000    0.0000 C   0  0  0  0  0  0  0  0  0  0  0  0
    0.0000    0.8250    0.0000 C   0  0  0  0  0  0  0  0  0  0  0  0
    0.7145    1.2375    0.0000 C   0  0  0  0  0  0  0  0  0  0  0  0
    1.4289    0.8250    0.0000 C   0  0  0  0  0  0  0  0  0  0  0  0
    1.4289    0.0000    0.0000 C   0  0  0  0  0  0  0  0  0  0  0  0
    2.1434   -1.2375    0.0000 C   0  0  0  0  0  0  0  0  0  0  0  0
    2.8579   -1.6500    0.0000 C   0  0  0  0  0  0  0  0  0  0  0  0
    4.2868   -1.6500    0.0000 C   0  0  0  0  0  0  0  0  0  0  0  0
  1  2  1  0  0  0  0
  2  3  1  0  0  0  0
  3  4  2  0  0  0  0
  4  5  1  0  0  0  0
  5  6  2  0  0  0  0
  6  7  1  0  0  0  0
  7  8  1  0  0  0  0
  8  9  1  0  0  0  0
  9 10  1  0  0  0  0
 10 11  1  0  0  0  0
 11 12  1  0  0  0  0
 12 13  1  0  0  0  0
 13 14  2  0  0  0  0
 13 15  1  0  0  0  0
 15 16  2  0  0  0  0
 16 17  1  0  0  0  0
 17 18  2  0  0  0  0
 18 19  1  0  0  0  0
 19 20  2  0  0  0  0
 15 20  1  0  0  0  0
 12 21  1  0  0  0  0
 21 22  1  0  0  0  0
  9 22  1  0  0  0  0
  7 23  2  0  0  0  0
  3 23  1  0  0  0  0
M  END
>  <StandardizerResult>
Tautomerize


>  <CdId>
94

>  <Mol Weight>
311.38

>  <Formula>
C18H21N3O2

>  <Molecule ChEMBL ID>
CHEMBL112747

>  <Molecule Max Phase>
0

>  <Molecular Weight>
311.38

>  <#RO5 Violations>
0

>  <AlogP>
2.81

>  <Compound Key>
1684

>  <Standard Type>
pKa_B1

>  <Standard Value>
6.85

>  <Comment>
'B1 Functional Group: 2-Pyridinamine; Ionisation Formula: A0B1 (Functional Group: the part of the molecule the pKa refers to; Ionisation formula: AxBy where 'A' refers to acidic centers within the molecule that are appreciably ionised at a pH <= 11 and 'x' equals 0, 1 or 2; and 'B' refers to basic centers within the molecule that are appreciably ionised at a pH >= 2 and 'y' equals 0, 1, 2 or 3).'

>  <Potential Duplicate>
false

>  <Assay ChEMBL ID>
CHEMBL3301362

>  <Assay Description>
ASTRAZENECA: Most basic pKa value (pKa B1) determined by absorption and potentiometric titration using standard methodology from Sirius Analytical. Experimental range Bases: >= 2.

>  <Assay Type>
P

>  <BAO Format ID>
BAO_0000100

>  <BAO Label>
small-molecule physicochemical format

>  <Target ChEMBL ID>
CHEMBL2362975

>  <Target Name>
No relevant target

>  <Target Type>
NO TARGET

>  <Document ChEMBL ID>
CHEMBL3301361

>  <Source ID>
27

>  <Source Description>
AstraZeneca Deposited Data

>  <Strongest basic pKa>
7.97

>  <deltapKa>
-1.1240723244353168

>  <Strongest basic pKa_Taut>
7.97

>  <deltapKa_TAut>
-1.1240723244353168

$$$$

  Mrv1920 03272013312D          

 30 32  0  0  1  0            999 V2000
   -4.7876   -0.5784    0.0000 C   0  0  0  0  0  0  0  0  0  0  0  0
   -4.7876   -1.4034    0.0000 C   0  0  0  0  0  0  0  0  0  0  0  0
   -4.1202   -1.8884    0.0000 C   0  0  0  0  0  0  0  0  0  0  0  0
   -4.3751   -2.6730    0.0000 C   0  0  0  0  0  0  0  0  0  0  0  0
   -3.8902   -3.3404    0.0000 C   0  0  0  0  0  0  0  0  0  0  0  0
   -3.0697   -3.2542    0.0000 C   0  0  0  0  0  0  0  0  0  0  0  0
   -2.5848   -3.9216    0.0000 C   0  0  0  0  0  0  0  0  0  0  0  0
   -2.9204   -4.6753    0.0000 C   0  0  0  0  0  0  0  0  0  0  0  0
   -2.4354   -5.3427    0.0000 Cl  0  0  0  0  0  0  0  0  0  0  0  0
   -3.7408   -4.7615    0.0000 C   0  0  0  0  0  0  0  0  0  0  0  0
   -4.0764   -5.5152    0.0000 C   0  0  0  0  0  0  0  0  0  0  0  0
   -4.8969   -5.6015    0.0000 O   0  0  0  0  0  0  0  0  0  0  0  0
   -3.5915   -6.1827    0.0000 N   0  0  0  0  0  0  0  0  0  0  0  0
   -3.9270   -6.9363    0.0000 C   0  0  0  0  0  0  0  0  0  0  0  0
   -3.4421   -7.6038    0.0000 C   0  0  0  0  0  0  0  0  0  0  0  0
   -4.2007   -7.9280    0.0000 O   0  0  0  0  0  0  0  0  0  0  0  0
   -2.8993   -6.9825    0.0000 C   0  0  0  0  0  0  0  0  0  0  0  0
   -2.0751   -7.0195    0.0000 C   0  0  0  0  0  0  0  0  0  0  0  0
   -1.5902   -7.6869    0.0000 C   0  0  0  0  0  0  0  0  0  0  0  0
   -1.8097   -8.4822    0.0000 C   0  0  0  0  0  0  0  0  0  0  0  0
   -2.5683   -8.8065    0.0000 C   0  0  0  0  0  0  0  0  0  0  0  0
   -3.2948   -8.4155    0.0000 C   0  0  0  0  0  0  0  0  0  0  0  0
   -4.2258   -4.0941    0.0000 C   0  0  0  0  0  0  0  0  0  0  0  0
   -5.2001   -2.6730    0.0000 N   0  0  0  0  0  0  0  0  0  0  0  0
   -5.4551   -1.8884    0.0000 N   0  0  0  0  0  0  0  0  0  0  0  0
   -6.2397   -1.6334    0.0000 C   0  0  0  0  0  0  0  0  0  0  0  0
   -6.8528   -2.1855    0.0000 C   0  0  2  0  0  0  0  0  0  0  0  0
   -6.6813   -2.9924    0.0000 O   0  0  0  0  0  0  0  0  0  0  0  0
   -7.6374   -1.9305    0.0000 C   0  0  0  0  0  0  0  0  0  0  0  0
   -8.2505   -2.4826    0.0000 N   0  0  0  0  0  0  0  0  0  0  0  0
  1  2  1  0  0  0  0
  2  3  2  0  0  0  0
  3  4  1  0  0  0  0
  4  5  1  0  0  0  0
  5  6  2  0  0  0  0
  6  7  1  0  0  0  0
  7  8  2  0  0  0  0
  8  9  1  0  0  0  0
  8 10  1  0  0  0  0
 10 11  1  0  0  0  0
 11 12  2  0  0  0  0
 11 13  1  0  0  0  0
 13 14  1  0  0  0  0
 14 15  1  0  0  0  0
 15 16  1  0  0  0  0
 15 17  1  0  0  0  0
 17 18  1  0  0  0  0
 18 19  1  0  0  0  0
 19 20  1  0  0  0  0
 20 21  1  0  0  0  0
 21 22  1  0  0  0  0
 15 22  1  0  0  0  0
 10 23  2  0  0  0  0
  5 23  1  0  0  0  0
  4 24  2  0  0  0  0
 24 25  1  0  0  0  0
  2 25  1  0  0  0  0
 25 26  1  0  0  0  0
 27 26  1  0  0  0  0
 27 28  1  6  0  0  0
 27 29  1  0  0  0  0
 29 30  1  0  0  0  0
M  END
>  <StandardizerResult>
Tautomerize


>  <CdId>
187

>  <Mol Weight>
434.97

>  <Formula>
C22H31ClN4O3

>  <Molecule ChEMBL ID>
CHEMBL1852508

>  <Molecule Max Phase>
0

>  <Molecular Weight>
434.97

>  <#RO5 Violations>
0

>  <AlogP>
2.65

>  <Compound Key>
3703

>  <Standard Type>
pKa_B1

>  <Standard Value>
8.6

>  <Comment>
'B1 Functional Group: Primary amine; Ionisation Formula: A0B1 (Functional Group: the part of the molecule the pKa refers to; Ionisation formula: AxBy where 'A' refers to acidic centers within the molecule that are appreciably ionised at a pH <= 11 and 'x' equals 0, 1 or 2; and 'B' refers to basic centers within the molecule that are appreciably ionised at a pH >= 2 and 'y' equals 0, 1, 2 or 3).'

>  <Potential Duplicate>
false

>  <Assay ChEMBL ID>
CHEMBL3301362

>  <Assay Description>
ASTRAZENECA: Most basic pKa value (pKa B1) determined by absorption and potentiometric titration using standard methodology from Sirius Analytical. Experimental range Bases: >= 2.

>  <Assay Type>
P

>  <BAO Format ID>
BAO_0000100

>  <BAO Label>
small-molecule physicochemical format

>  <Target ChEMBL ID>
CHEMBL2362975

>  <Target Name>
No relevant target

>  <Target Type>
NO TARGET

>  <Document ChEMBL ID>
CHEMBL3301361

>  <Source ID>
27

>  <Source Description>
AstraZeneca Deposited Data

>  <Strongest basic pKa>
9.69

>  <deltapKa>
-1.090267394625986

>  <Strongest basic pKa_Taut>
9.69

>  <deltapKa_TAut>
-1.090267394625986

$$$$

  Mrv1920 03272013312D          

 33 34  0  0  0  0            999 V2000
   -2.1434   -3.7125    0.0000 C   0  0  0  0  0  0  0  0  0  0  0  0
   -1.4289   -3.3000    0.0000 O   0  0  0  0  0  0  0  0  0  0  0  0
   -0.7145   -3.7125    0.0000 C   0  0  0  0  0  0  0  0  0  0  0  0
    0.0000   -3.3000    0.0000 C   0  0  0  0  0  0  0  0  0  0  0  0
    0.7145   -3.7125    0.0000 C   0  0  0  0  0  0  0  0  0  0  0  0
    0.7145   -4.5375    0.0000 C   0  0  0  0  0  0  0  0  0  0  0  0
    1.4289   -4.9500    0.0000 C   0  0  0  0  0  0  0  0  0  0  0  0
    2.1434   -4.5375    0.0000 C   0  0  0  0  0  0  0  0  0  0  0  0
    2.8579   -4.9500    0.0000 N   0  0  0  0  0  0  0  0  0  0  0  0
    2.8579   -5.7750    0.0000 C   0  0  0  0  0  0  0  0  0  0  0  0
    3.5724   -4.5375    0.0000 C   0  0  0  0  0  0  0  0  0  0  0  0
    4.2868   -4.9500    0.0000 C   0  0  0  0  0  0  0  0  0  0  0  0
    5.0013   -4.5375    0.0000 C   0  0  0  0  0  0  0  0  0  0  0  0
    5.7158   -4.9500    0.0000 C   0  0  0  0  0  0  0  0  0  0  0  0
    5.3033   -5.6645    0.0000 C   0  0  0  0  0  0  0  0  0  0  0  0
    4.8908   -6.3789    0.0000 N   0  0  0  0  0  0  0  0  0  0  0  0
    6.4302   -5.3625    0.0000 C   0  0  0  0  0  0  0  0  0  0  0  0
    7.1447   -4.9500    0.0000 C   0  0  0  0  0  0  0  0  0  0  0  0
    7.8592   -5.3625    0.0000 C   0  0  0  0  0  0  0  0  0  0  0  0
    7.8592   -6.1875    0.0000 C   0  0  0  0  0  0  0  0  0  0  0  0
    8.5737   -6.6000    0.0000 O   0  0  0  0  0  0  0  0  0  0  0  0
    9.2881   -6.1875    0.0000 C   0  0  0  0  0  0  0  0  0  0  0  0
    7.1447   -6.6000    0.0000 C   0  0  0  0  0  0  0  0  0  0  0  0
    7.1447   -7.4250    0.0000 O   0  0  0  0  0  0  0  0  0  0  0  0
    6.4302   -7.8375    0.0000 C   0  0  0  0  0  0  0  0  0  0  0  0
    6.4302   -6.1875    0.0000 C   0  0  0  0  0  0  0  0  0  0  0  0
    6.1283   -4.2355    0.0000 C   0  0  0  0  0  0  0  0  0  0  0  0
    6.9533   -4.2355    0.0000 C   0  0  0  0  0  0  0  0  0  0  0  0
    5.7158   -3.5211    0.0000 C   0  0  0  0  0  0  0  0  0  0  0  0
    0.0000   -4.9500    0.0000 C   0  0  0  0  0  0  0  0  0  0  0  0
   -0.7145   -4.5375    0.0000 C   0  0  0  0  0  0  0  0  0  0  0  0
   -1.4289   -4.9500    0.0000 O   0  0  0  0  0  0  0  0  0  0  0  0
   -2.1434   -4.5375    0.0000 C   0  0  0  0  0  0  0  0  0  0  0  0
  1  2  1  0  0  0  0
  2  3  1  0  0  0  0
  3  4  2  0  0  0  0
  4  5  1  0  0  0  0
  5  6  2  0  0  0  0
  6  7  1  0  0  0  0
  7  8  1  0  0  0  0
  8  9  1  0  0  0  0
  9 10  1  0  0  0  0
  9 11  1  0  0  0  0
 11 12  1  0  0  0  0
 12 13  1  0  0  0  0
 13 14  1  0  0  0  0
 14 15  1  0  0  0  0
 15 16  3  0  0  0  0
 14 17  1  0  0  0  0
 17 18  2  0  0  0  0
 18 19  1  0  0  0  0
 19 20  2  0  0  0  0
 20 21  1  0  0  0  0
 21 22  1  0  0  0  0
 20 23  1  0  0  0  0
 23 24  1  0  0  0  0
 24 25  1  0  0  0  0
 23 26  2  0  0  0  0
 17 26  1  0  0  0  0
 14 27  1  0  0  0  0
 27 28  1  0  0  0  0
 27 29  1  0  0  0  0
  6 30  1  0  0  0  0
 30 31  2  0  0  0  0
  3 31  1  0  0  0  0
 31 32  1  0  0  0  0
 32 33  1  0  0  0  0
M  END
>  <StandardizerResult>
Tautomerize


>  <CdId>
113

>  <Mol Weight>
454.61

>  <Formula>
C27H38N2O4

>  <Molecule ChEMBL ID>
CHEMBL6966

>  <Molecule Name>
VERAPAMIL

>  <Molecule Max Phase>
4

>  <Molecular Weight>
454.61

>  <#RO5 Violations>
1

>  <AlogP>
5.09

>  <Compound Key>
305

>  <Standard Type>
pKa_B1

>  <Standard Value>
8.6

>  <Comment>
'B1 Functional Group: Tertiary amine; Ionisation Formula: A0B1 (Functional Group: the part of the molecule the pKa refers to; Ionisation formula: AxBy where 'A' refers to acidic centers within the molecule that are appreciably ionised at a pH <= 11 and 'x' equals 0, 1 or 2; and 'B' refers to basic centers within the molecule that are appreciably ionised at a pH >= 2 and 'y' equals 0, 1, 2 or 3).'

>  <Potential Duplicate>
false

>  <Assay ChEMBL ID>
CHEMBL3301362

>  <Assay Description>
ASTRAZENECA: Most basic pKa value (pKa B1) determined by absorption and potentiometric titration using standard methodology from Sirius Analytical. Experimental range Bases: >= 2.

>  <Assay Type>
P

>  <BAO Format ID>
BAO_0000100

>  <BAO Label>
small-molecule physicochemical format

>  <Target ChEMBL ID>
CHEMBL2362975

>  <Target Name>
No relevant target

>  <Target Type>
NO TARGET

>  <Document ChEMBL ID>
CHEMBL3301361

>  <Source ID>
27

>  <Source Description>
AstraZeneca Deposited Data

>  <Strongest basic pKa>
9.68

>  <deltapKa>
-1.0784435722549208

>  <Strongest basic pKa_Taut>
9.68

>  <deltapKa_TAut>
-1.0784435722549208

$$$$

  Mrv1920 03272013312D          

 18 20  0  0  1  0            999 V2000
    2.1434    8.4161    0.0000 C   0  0  0  0  0  0  0  0  0  0  0  0
    2.8579    8.0036    0.0000 C   0  0  0  0  0  0  0  0  0  0  0  0
    2.8579    7.1786    0.0000 C   0  0  0  0  0  0  0  0  0  0  0  0
    2.1434    6.7661    0.0000 C   0  0  0  0  0  0  0  0  0  0  0  0
    2.1434    5.9411    0.0000 C   0  0  0  0  0  0  0  0  0  0  0  0
    1.4289    5.5286    0.0000 S   0  0  0  0  0  0  0  0  0  0  0  0
    1.4289    4.7036    0.0000 C   0  0  0  0  0  0  0  0  0  0  0  0
    2.0964    4.2187    0.0000 N   0  0  0  0  0  0  0  0  0  0  0  0
    1.8414    3.4340    0.0000 N   0  0  0  0  0  0  0  0  0  0  0  0
    1.0164    3.4340    0.0000 C   0  0  0  0  0  0  0  0  0  0  0  0
    0.5315    2.7666    0.0000 C   0  0  2  0  0  0  0  0  0  0  0  0
    0.7865    1.9820    0.0000 C   0  0  0  0  0  0  0  0  0  0  0  0
    0.1190    1.4970    0.0000 C   0  0  0  0  0  0  0  0  0  0  0  0
   -0.5484    1.9820    0.0000 C   0  0  0  0  0  0  0  0  0  0  0  0
   -0.2935    2.7666    0.0000 N   0  0  0  0  0  0  0  0  0  0  0  0
    0.7615    4.2187    0.0000 O   0  0  0  0  0  0  0  0  0  0  0  0
    1.4289    7.1786    0.0000 C   0  0  0  0  0  0  0  0  0  0  0  0
    1.4289    8.0036    0.0000 C   0  0  0  0  0  0  0  0  0  0  0  0
  1  2  2  0  0  0  0
  2  3  1  0  0  0  0
  3  4  2  0  0  0  0
  4  5  1  0  0  0  0
  5  6  1  0  0  0  0
  6  7  1  0  0  0  0
  7  8  2  0  0  0  0
  8  9  1  0  0  0  0
  9 10  2  0  0  0  0
 11 10  1  6  0  0  0
 11 12  1  0  0  0  0
 12 13  1  0  0  0  0
 13 14  1  0  0  0  0
 14 15  1  0  0  0  0
 11 15  1  0  0  0  0
 10 16  1  0  0  0  0
  7 16  1  0  0  0  0
  4 17  1  0  0  0  0
 17 18  2  0  0  0  0
  1 18  1  0  0  0  0
M  END
>  <StandardizerResult>
Tautomerize


>  <CdId>
13

>  <Mol Weight>
261.34

>  <Formula>
C13H15N3OS

>  <Molecule ChEMBL ID>
CHEMBL1739830

>  <Molecule Max Phase>
0

>  <Molecular Weight>
261.35

>  <#RO5 Violations>
0

>  <AlogP>
2.79

>  <Compound Key>
5598

>  <Standard Type>
pKa_B1

>  <Standard Value>
7.03

>  <Comment>
'B1 Functional Group: Pyrrolidine; Ionisation Formula: A0B1 (Functional Group: the part of the molecule the pKa refers to; Ionisation formula: AxBy where 'A' refers to acidic centers within the molecule that are appreciably ionised at a pH <= 11 and 'x' equals 0, 1 or 2; and 'B' refers to basic centers within the molecule that are appreciably ionised at a pH >= 2 and 'y' equals 0, 1, 2 or 3).'

>  <Potential Duplicate>
false

>  <Assay ChEMBL ID>
CHEMBL3301362

>  <Assay Description>
ASTRAZENECA: Most basic pKa value (pKa B1) determined by absorption and potentiometric titration using standard methodology from Sirius Analytical. Experimental range Bases: >= 2.

>  <Assay Type>
P

>  <BAO Format ID>
BAO_0000100

>  <BAO Label>
small-molecule physicochemical format

>  <Target ChEMBL ID>
CHEMBL2362975

>  <Target Name>
No relevant target

>  <Target Type>
NO TARGET

>  <Document ChEMBL ID>
CHEMBL3301361

>  <Source ID>
27

>  <Source Description>
AstraZeneca Deposited Data

>  <Strongest basic pKa>
8.09

>  <deltapKa>
-1.0646051917471917

>  <Strongest basic pKa_Taut>
8.09

>  <deltapKa_TAut>
-1.0646051917471917

$$$$

  Mrv1920 03272013312D          

  9  9  0  0  0  0            999 V2000
    0.7145    2.0625    0.0000 C   0  0  0  0  0  0  0  0  0  0  0  0
    0.7145    1.2375    0.0000 C   0  0  0  0  0  0  0  0  0  0  0  0
    1.4289    0.8250    0.0000 C   0  0  0  0  0  0  0  0  0  0  0  0
    1.4289    0.0000    0.0000 C   0  0  0  0  0  0  0  0  0  0  0  0
    0.7145   -0.4125    0.0000 N   0  0  0  0  0  0  0  0  0  0  0  0
    0.0000    0.0000    0.0000 C   0  0  0  0  0  0  0  0  0  0  0  0
   -0.7145   -0.4125    0.0000 N   0  0  0  0  0  0  0  0  0  0  0  0
    0.0000    0.8250    0.0000 C   0  0  0  0  0  0  0  0  0  0  0  0
   -0.7145    1.2375    0.0000 N   0  0  0  0  0  0  0  0  0  0  0  0
  1  2  1  0  0  0  0
  2  3  2  0  0  0  0
  3  4  1  0  0  0  0
  4  5  2  0  0  0  0
  5  6  1  0  0  0  0
  6  7  1  0  0  0  0
  6  8  2  0  0  0  0
  2  8  1  0  0  0  0
  8  9  1  0  0  0  0
M  END
>  <StandardizerResult>
Tautomerize


>  <CdId>
65

>  <Mol Weight>
123.16

>  <Formula>
C6H9N3

>  <Molecule ChEMBL ID>
CHEMBL61427

>  <Molecule Max Phase>
0

>  <Molecular Weight>
123.16

>  <#RO5 Violations>
0

>  <AlogP>
0.55

>  <Compound Key>
1521

>  <Standard Type>
pKa_B1

>  <Standard Value>
7.2

>  <Comment>
'B1 Functional Group: 2,3-Pyridinediamine; Ionisation Formula: A0B1 (Functional Group: the part of the molecule the pKa refers to; Ionisation formula: AxBy where 'A' refers to acidic centers within the molecule that are appreciably ionised at a pH <= 11 and 'x' equals 0, 1 or 2; and 'B' refers to basic centers within the molecule that are appreciably ionised at a pH >= 2 and 'y' equals 0, 1, 2 or 3).'

>  <Potential Duplicate>
false

>  <Assay ChEMBL ID>
CHEMBL3301362

>  <Assay Description>
ASTRAZENECA: Most basic pKa value (pKa B1) determined by absorption and potentiometric titration using standard methodology from Sirius Analytical. Experimental range Bases: >= 2.

>  <Assay Type>
P

>  <BAO Format ID>
BAO_0000100

>  <BAO Label>
small-molecule physicochemical format

>  <Target ChEMBL ID>
CHEMBL2362975

>  <Target Name>
No relevant target

>  <Target Type>
NO TARGET

>  <Document ChEMBL ID>
CHEMBL3301361

>  <Source ID>
27

>  <Source Description>
AstraZeneca Deposited Data

>  <Strongest basic pKa>
8.19

>  <deltapKa>
-0.9874669625810055

>  <Strongest basic pKa_Taut>
8.19

>  <deltapKa_TAut>
-0.9874669625810055

$$$$

  Mrv1920 03272013312D          

 10 11  0  0  0  0            999 V2000
   -0.1712   -0.6979    0.0000 N   0  0  0  0  0  0  0  0  0  0  0  0
    0.6538   -0.6979    0.0000 C   0  0  0  0  0  0  0  0  0  0  0  0
    1.1387   -0.0305    0.0000 N   0  0  0  0  0  0  0  0  0  0  0  0
    1.9233   -0.2854    0.0000 C   0  0  0  0  0  0  0  0  0  0  0  0
    2.6378    0.1271    0.0000 C   0  0  0  0  0  0  0  0  0  0  0  0
    3.3523   -0.2854    0.0000 C   0  0  0  0  0  0  0  0  0  0  0  0
    3.3523   -1.1104    0.0000 C   0  0  0  0  0  0  0  0  0  0  0  0
    2.6378   -1.5229    0.0000 C   0  0  0  0  0  0  0  0  0  0  0  0
    1.9233   -1.1104    0.0000 C   0  0  0  0  0  0  0  0  0  0  0  0
    1.1387   -1.3654    0.0000 N   0  0  0  0  0  0  0  0  0  0  0  0
  1  2  1  0  0  0  0
  2  3  2  0  0  0  0
  3  4  1  0  0  0  0
  4  5  2  0  0  0  0
  5  6  1  0  0  0  0
  6  7  2  0  0  0  0
  7  8  1  0  0  0  0
  8  9  2  0  0  0  0
  4  9  1  0  0  0  0
  9 10  1  0  0  0  0
  2 10  1  0  0  0  0
M  END
>  <StandardizerResult>
Tautomerize


>  <CdId>
251

>  <Mol Weight>
133.15

>  <Formula>
C7H7N3

>  <Molecule ChEMBL ID>
CHEMBL305513

>  <Molecule Max Phase>
0

>  <Molecular Weight>
133.15

>  <#RO5 Violations>
0

>  <AlogP>
1.15

>  <Compound Key>
69

>  <Standard Type>
pKa_B1

>  <Standard Value>
7.2

>  <Comment>
'B1 Functional Group: 1H-benzimidazole-2-amine; Ionisation Formula: A0B1 (Functional Group: the part of the molecule the pKa refers to; Ionisation formula: AxBy where 'A' refers to acidic centers within the molecule that are appreciably ionised at a pH <= 11 and 'x' equals 0, 1 or 2; and 'B' refers to basic centers within the molecule that are appreciably ionised at a pH >= 2 and 'y' equals 0, 1, 2 or 3).'

>  <Potential Duplicate>
false

>  <Assay ChEMBL ID>
CHEMBL3301362

>  <Assay Description>
ASTRAZENECA: Most basic pKa value (pKa B1) determined by absorption and potentiometric titration using standard methodology from Sirius Analytical. Experimental range Bases: >= 2.

>  <Assay Type>
P

>  <BAO Format ID>
BAO_0000100

>  <BAO Label>
small-molecule physicochemical format

>  <Target ChEMBL ID>
CHEMBL2362975

>  <Target Name>
No relevant target

>  <Target Type>
NO TARGET

>  <Document ChEMBL ID>
CHEMBL3301361

>  <Source ID>
27

>  <Source Description>
AstraZeneca Deposited Data

>  <Strongest basic pKa>
8.11

>  <deltapKa>
-0.9095623522372671

>  <Strongest basic pKa_Taut>
8.11

>  <deltapKa_TAut>
-0.9095623522372671

$$$$

  Mrv1920 03272013312D          

 31 34  0  0  0  0            999 V2000
    7.8592    1.2375    0.0000 O   0  0  0  0  0  0  0  0  0  0  0  0
    7.1447    0.8250    0.0000 C   0  0  0  0  0  0  0  0  0  0  0  0
    6.4302    1.2375    0.0000 O   0  0  0  0  0  0  0  0  0  0  0  0
    7.1447    0.0000    0.0000 C   0  0  0  0  0  0  0  0  0  0  0  0
    7.8592   -0.4125    0.0000 C   0  0  0  0  0  0  0  0  0  0  0  0
    7.8592   -1.2375    0.0000 C   0  0  0  0  0  0  0  0  0  0  0  0
    7.1447   -1.6500    0.0000 C   0  0  0  0  0  0  0  0  0  0  0  0
    6.4302   -1.2375    0.0000 C   0  0  0  0  0  0  0  0  0  0  0  0
    5.7158   -1.6500    0.0000 N   0  0  0  0  0  0  0  0  0  0  0  0
    5.7158   -2.4750    0.0000 C   0  0  0  0  0  0  0  0  0  0  0  0
    5.0013   -2.8875    0.0000 C   0  0  0  0  0  0  0  0  0  0  0  0
    4.2868   -2.4750    0.0000 C   0  0  0  0  0  0  0  0  0  0  0  0
    3.5724   -2.8875    0.0000 C   0  0  0  0  0  0  0  0  0  0  0  0
    2.8579   -2.4750    0.0000 N   0  0  0  0  0  0  0  0  0  0  0  0
    2.1434   -2.8875    0.0000 C   0  0  0  0  0  0  0  0  0  0  0  0
    1.4289   -2.4750    0.0000 C   0  0  0  0  0  0  0  0  0  0  0  0
    1.4289   -1.6500    0.0000 C   0  0  0  0  0  0  0  0  0  0  0  0
    0.7145   -1.2375    0.0000 O   0  0  0  0  0  0  0  0  0  0  0  0
    0.7145   -0.4125    0.0000 C   0  0  0  0  0  0  0  0  0  0  0  0
    0.0000    0.0000    0.0000 C   0  0  0  0  0  0  0  0  0  0  0  0
    0.0000    0.8250    0.0000 C   0  0  0  0  0  0  0  0  0  0  0  0
    0.7145    1.2375    0.0000 C   0  0  0  0  0  0  0  0  0  0  0  0
    0.7145    2.0625    0.0000 Cl  0  0  0  0  0  0  0  0  0  0  0  0
    1.4289    0.8250    0.0000 C   0  0  0  0  0  0  0  0  0  0  0  0
    2.1434    1.2375    0.0000 Cl  0  0  0  0  0  0  0  0  0  0  0  0
    1.4289    0.0000    0.0000 C   0  0  0  0  0  0  0  0  0  0  0  0
    2.1434   -1.2375    0.0000 C   0  0  0  0  0  0  0  0  0  0  0  0
    2.8579   -1.6500    0.0000 C   0  0  0  0  0  0  0  0  0  0  0  0
    4.2868   -1.6500    0.0000 C   0  0  0  0  0  0  0  0  0  0  0  0
    5.0013   -1.2375    0.0000 C   0  0  0  0  0  0  0  0  0  0  0  0
    6.4302   -0.4125    0.0000 C   0  0  0  0  0  0  0  0  0  0  0  0
  1  2  2  0  0  0  0
  2  3  1  0  0  0  0
  2  4  1  0  0  0  0
  4  5  2  0  0  0  0
  5  6  1  0  0  0  0
  6  7  2  0  0  0  0
  7  8  1  0  0  0  0
  8  9  1  0  0  0  0
  9 10  1  0  0  0  0
 10 11  1  0  0  0  0
 11 12  1  0  0  0  0
 12 13  1  0  0  0  0
 13 14  1  0  0  0  0
 14 15  1  0  0  0  0
 15 16  1  0  0  0  0
 16 17  1  0  0  0  0
 17 18  1  0  0  0  0
 18 19  1  0  0  0  0
 19 20  2  0  0  0  0
 20 21  1  0  0  0  0
 21 22  2  0  0  0  0
 22 23  1  0  0  0  0
 22 24  1  0  0  0  0
 24 25  1  0  0  0  0
 24 26  2  0  0  0  0
 19 26  1  0  0  0  0
 17 27  1  0  0  0  0
 27 28  1  0  0  0  0
 14 28  1  0  0  0  0
 12 29  1  0  0  0  0
 29 30  1  0  0  0  0
  9 30  1  0  0  0  0
  8 31  2  0  0  0  0
  4 31  1  0  0  0  0
M  END
>  <StandardizerResult>
Tautomerize


>  <CdId>
54

>  <Mol Weight>
463.4

>  <Formula>
C24H28Cl2N2O3

>  <Molecule ChEMBL ID>
CHEMBL2158823

>  <Molecule Max Phase>
0

>  <Molecular Weight>
463.41

>  <#RO5 Violations>
1

>  <AlogP>
5.45

>  <Compound Key>
2889

>  <Standard Type>
pKa_B1

>  <Standard Value>
8.7

>  <Comment>
'B1 Functional Group: 4-Phenoxypiperidine; Ionisation Formula: A1B2 (Functional Group: the part of the molecule the pKa refers to; Ionisation formula: AxBy where 'A' refers to acidic centers within the molecule that are appreciably ionised at a pH <= 11 and 'x' equals 0, 1 or 2; and 'B' refers to basic centers within the molecule that are appreciably ionised at a pH >= 2 and 'y' equals 0, 1, 2 or 3).'

>  <Potential Duplicate>
false

>  <Assay ChEMBL ID>
CHEMBL3301362

>  <Assay Description>
ASTRAZENECA: Most basic pKa value (pKa B1) determined by absorption and potentiometric titration using standard methodology from Sirius Analytical. Experimental range Bases: >= 2.

>  <Assay Type>
P

>  <BAO Format ID>
BAO_0000100

>  <BAO Label>
small-molecule physicochemical format

>  <Target ChEMBL ID>
CHEMBL2362975

>  <Target Name>
No relevant target

>  <Target Type>
NO TARGET

>  <Document ChEMBL ID>
CHEMBL3301361

>  <Source ID>
27

>  <Source Description>
AstraZeneca Deposited Data

>  <Strongest basic pKa>
9.58

>  <deltapKa>
-0.8781888674408602

>  <Strongest basic pKa_Taut>
9.58

>  <deltapKa_TAut>
-0.8781888674408602

$$$$

  Mrv1920 03272013312D          

 12 13  0  0  0  0            999 V2000
   -0.6314    1.2293    0.0000 N   0  0  0  0  0  0  0  0  0  0  0  0
   -0.8449    0.4324    0.0000 C   0  0  0  0  0  0  0  0  0  0  0  0
   -0.2615   -0.1510    0.0000 C   0  0  0  0  0  0  0  0  0  0  0  0
   -0.2615   -0.9760    0.0000 C   0  0  0  0  0  0  0  0  0  0  0  0
    0.5635   -0.9760    0.0000 C   0  0  0  0  0  0  0  0  0  0  0  0
    0.5635   -0.1510    0.0000 C   0  0  0  0  0  0  0  0  0  0  0  0
    1.2780    0.2615    0.0000 C   0  0  0  0  0  0  0  0  0  0  0  0
    1.9924   -0.1510    0.0000 C   0  0  0  0  0  0  0  0  0  0  0  0
    1.9924   -0.9760    0.0000 C   0  0  0  0  0  0  0  0  0  0  0  0
    2.7069   -1.3885    0.0000 O   0  0  0  0  0  0  0  0  0  0  0  0
    1.2780   -1.3885    0.0000 C   0  0  0  0  0  0  0  0  0  0  0  0
    1.2780   -2.2135    0.0000 O   0  0  0  0  0  0  0  0  0  0  0  0
  1  2  1  0  0  0  0
  2  3  1  0  0  0  0
  3  4  1  0  0  0  0
  4  5  1  0  0  0  0
  5  6  2  0  0  0  0
  3  6  1  0  0  0  0
  6  7  1  0  0  0  0
  7  8  2  0  0  0  0
  8  9  1  0  0  0  0
  9 10  1  0  0  0  0
  9 11  2  0  0  0  0
  5 11  1  0  0  0  0
 11 12  1  0  0  0  0
M  END
>  <StandardizerResult>
Tautomerize


>  <CdId>
6

>  <Mol Weight>
165.19

>  <Formula>
C9H11NO2

>  <Molecule ChEMBL ID>
CHEMBL31789

>  <Molecule Max Phase>
0

>  <Molecular Weight>
165.19

>  <#RO5 Violations>
0

>  <AlogP>
0.7

>  <Compound Key>
1437

>  <Standard Type>
pKa_B1

>  <Standard Value>
8.5

>  <Comment>
'B1 Functional Group: Primary amine; Ionisation Formula: A1B1 (Functional Group: the part of the molecule the pKa refers to; Ionisation formula: AxBy where 'A' refers to acidic centers within the molecule that are appreciably ionised at a pH <= 11 and 'x' equals 0, 1 or 2; and 'B' refers to basic centers within the molecule that are appreciably ionised at a pH >= 2 and 'y' equals 0, 1, 2 or 3).'

>  <Potential Duplicate>
false

>  <Assay ChEMBL ID>
CHEMBL3301362

>  <Assay Description>
ASTRAZENECA: Most basic pKa value (pKa B1) determined by absorption and potentiometric titration using standard methodology from Sirius Analytical. Experimental range Bases: >= 2.

>  <Assay Type>
P

>  <BAO Format ID>
BAO_0000100

>  <BAO Label>
small-molecule physicochemical format

>  <Target ChEMBL ID>
CHEMBL2362975

>  <Target Name>
No relevant target

>  <Target Type>
NO TARGET

>  <Document ChEMBL ID>
CHEMBL3301361

>  <Source ID>
27

>  <Source Description>
AstraZeneca Deposited Data

>  <Strongest basic pKa>
9.37

>  <deltapKa>
-0.8743160913696375

>  <Strongest basic pKa_Taut>
9.37

>  <deltapKa_TAut>
-0.8743160913696375

$$$$

  Mrv1920 03272013312D          

 25 27  0  0  0  0            999 V2000
    5.7158    0.0000    0.0000 C   0  0  0  0  0  0  0  0  0  0  0  0
    5.0013   -0.4125    0.0000 O   0  0  0  0  0  0  0  0  0  0  0  0
    5.0013   -1.2375    0.0000 C   0  0  0  0  0  0  0  0  0  0  0  0
    5.7158   -1.6500    0.0000 C   0  0  0  0  0  0  0  0  0  0  0  0
    5.7158   -2.4750    0.0000 C   0  0  0  0  0  0  0  0  0  0  0  0
    5.0013   -2.8875    0.0000 N   0  0  0  0  0  0  0  0  0  0  0  0
    4.2868   -2.4750    0.0000 C   0  0  0  0  0  0  0  0  0  0  0  0
    3.5724   -2.8875    0.0000 N   0  0  0  0  0  0  0  0  0  0  0  0
    2.8579   -2.4750    0.0000 C   0  0  0  0  0  0  0  0  0  0  0  0
    2.1434   -2.8875    0.0000 C   0  0  0  0  0  0  0  0  0  0  0  0
    1.4289   -2.4750    0.0000 C   0  0  0  0  0  0  0  0  0  0  0  0
    1.4289   -1.6500    0.0000 N   0  0  0  0  0  0  0  0  0  0  0  0
    0.7145   -1.2375    0.0000 C   0  0  0  0  0  0  0  0  0  0  0  0
    0.0000   -1.6500    0.0000 O   0  0  0  0  0  0  0  0  0  0  0  0
    0.7145   -0.4125    0.0000 C   0  0  0  0  0  0  0  0  0  0  0  0
    0.0000    0.0000    0.0000 C   0  0  0  0  0  0  0  0  0  0  0  0
    0.0000    0.8250    0.0000 C   0  0  0  0  0  0  0  0  0  0  0  0
    0.7145    1.2375    0.0000 C   0  0  0  0  0  0  0  0  0  0  0  0
    0.7145    2.0625    0.0000 C   0  0  0  0  0  0  0  0  0  0  0  0
    0.7145    2.8875    0.0000 N   0  0  0  0  0  0  0  0  0  0  0  0
    1.4289    0.8250    0.0000 C   0  0  0  0  0  0  0  0  0  0  0  0
    1.4289    0.0000    0.0000 C   0  0  0  0  0  0  0  0  0  0  0  0
    2.1434   -1.2375    0.0000 C   0  0  0  0  0  0  0  0  0  0  0  0
    2.8579   -1.6500    0.0000 C   0  0  0  0  0  0  0  0  0  0  0  0
    4.2868   -1.6500    0.0000 C   0  0  0  0  0  0  0  0  0  0  0  0
  1  2  1  0  0  0  0
  2  3  1  0  0  0  0
  3  4  2  0  0  0  0
  4  5  1  0  0  0  0
  5  6  2  0  0  0  0
  6  7  1  0  0  0  0
  7  8  1  0  0  0  0
  8  9  1  0  0  0  0
  9 10  1  0  0  0  0
 10 11  1  0  0  0  0
 11 12  1  0  0  0  0
 12 13  1  0  0  0  0
 13 14  2  0  0  0  0
 13 15  1  0  0  0  0
 15 16  2  0  0  0  0
 16 17  1  0  0  0  0
 17 18  2  0  0  0  0
 18 19  1  0  0  0  0
 19 20  3  0  0  0  0
 18 21  1  0  0  0  0
 21 22  2  0  0  0  0
 15 22  1  0  0  0  0
 12 23  1  0  0  0  0
 23 24  1  0  0  0  0
  9 24  1  0  0  0  0
  7 25  2  0  0  0  0
  3 25  1  0  0  0  0
M  END
>  <StandardizerResult>
Tautomerize


>  <CdId>
236

>  <Mol Weight>
336.39

>  <Formula>
C19H20N4O2

>  <Molecule ChEMBL ID>
CHEMBL114500

>  <Molecule Max Phase>
0

>  <Molecular Weight>
336.4

>  <#RO5 Violations>
0

>  <AlogP>
2.68

>  <Compound Key>
1679

>  <Standard Type>
pKa_B1

>  <Standard Value>
7.1

>  <Comment>
'B1 Functional Group: 2-Pyridinamine; Ionisation Formula: A0B1 (Functional Group: the part of the molecule the pKa refers to; Ionisation formula: AxBy where 'A' refers to acidic centers within the molecule that are appreciably ionised at a pH <= 11 and 'x' equals 0, 1 or 2; and 'B' refers to basic centers within the molecule that are appreciably ionised at a pH >= 2 and 'y' equals 0, 1, 2 or 3).'

>  <Potential Duplicate>
false

>  <Assay ChEMBL ID>
CHEMBL3301362

>  <Assay Description>
ASTRAZENECA: Most basic pKa value (pKa B1) determined by absorption and potentiometric titration using standard methodology from Sirius Analytical. Experimental range Bases: >= 2.

>  <Assay Type>
P

>  <BAO Format ID>
BAO_0000100

>  <BAO Label>
small-molecule physicochemical format

>  <Target ChEMBL ID>
CHEMBL2362975

>  <Target Name>
No relevant target

>  <Target Type>
NO TARGET

>  <Document ChEMBL ID>
CHEMBL3301361

>  <Source ID>
27

>  <Source Description>
AstraZeneca Deposited Data

>  <Strongest basic pKa>
7.97

>  <deltapKa>
-0.8740723243848709

>  <Strongest basic pKa_Taut>
7.97

>  <deltapKa_TAut>
-0.8740723243848709

$$$$

  Mrv1920 03272013312D          

 35 37  0  0  0  0            999 V2000
   -5.7158   -3.3000    0.0000 C   0  0  0  0  0  0  0  0  0  0  0  0
   -5.0013   -2.8875    0.0000 O   0  0  0  0  0  0  0  0  0  0  0  0
   -5.0013   -2.0625    0.0000 C   0  0  0  0  0  0  0  0  0  0  0  0
   -5.7158   -1.6500    0.0000 O   0  0  0  0  0  0  0  0  0  0  0  0
   -4.2868   -1.6500    0.0000 C   0  0  0  0  0  0  0  0  0  0  0  0
   -4.2868   -0.8250    0.0000 C   0  0  0  0  0  0  0  0  0  0  0  0
   -5.0013   -0.4125    0.0000 C   0  0  0  0  0  0  0  0  0  0  0  0
   -3.5724   -0.4125    0.0000 N   0  0  0  0  0  0  0  0  0  0  0  0
   -2.8579   -0.8250    0.0000 C   0  0  0  0  0  0  0  0  0  0  0  0
   -2.1434   -0.4125    0.0000 C   0  0  0  0  0  0  0  0  0  0  0  0
   -2.8579   -1.6500    0.0000 C   0  0  0  0  0  0  0  0  0  0  0  0
   -2.1434   -2.0625    0.0000 C   0  0  0  0  0  0  0  0  0  0  0  0
   -2.1434   -2.8875    0.0000 O   0  0  0  0  0  0  0  0  0  0  0  0
   -1.4289   -1.6500    0.0000 O   0  0  0  0  0  0  0  0  0  0  0  0
   -0.7145   -2.0625    0.0000 C   0  0  0  0  0  0  0  0  0  0  0  0
    0.0000   -1.6500    0.0000 C   0  0  0  0  0  0  0  0  0  0  0  0
    0.7145   -2.0625    0.0000 N   0  0  0  0  0  0  0  0  0  0  0  0
    0.7145   -2.8875    0.0000 C   0  0  0  0  0  0  0  0  0  0  0  0
    1.4289   -1.6500    0.0000 C   0  0  0  0  0  0  0  0  0  0  0  0
    2.1434   -2.0625    0.0000 C   0  0  0  0  0  0  0  0  0  0  0  0
    2.8579   -1.6500    0.0000 C   0  0  0  0  0  0  0  0  0  0  0  0
    3.5724   -2.0625    0.0000 C   0  0  0  0  0  0  0  0  0  0  0  0
    3.5724   -2.8875    0.0000 C   0  0  0  0  0  0  0  0  0  0  0  0
    2.8579   -3.3000    0.0000 C   0  0  0  0  0  0  0  0  0  0  0  0
    2.1434   -2.8875    0.0000 C   0  0  0  0  0  0  0  0  0  0  0  0
   -3.5724   -2.0625    0.0000 C   0  0  0  0  0  0  0  0  0  0  0  0
   -3.5724   -2.8875    0.0000 C   0  0  0  0  0  0  0  0  0  0  0  0
   -2.8579   -3.3000    0.0000 C   0  0  0  0  0  0  0  0  0  0  0  0
   -2.8579   -4.1250    0.0000 C   0  0  0  0  0  0  0  0  0  0  0  0
   -3.5724   -4.5375    0.0000 C   0  0  0  0  0  0  0  0  0  0  0  0
   -4.2868   -4.1250    0.0000 C   0  0  0  0  0  0  0  0  0  0  0  0
   -5.0013   -4.5375    0.0000 N   0  3  0  0  0  0  0  0  0  0  0  0
   -5.0013   -5.3625    0.0000 O   0  0  0  0  0  0  0  0  0  0  0  0
   -5.7158   -4.1250    0.0000 O   0  5  0  0  0  0  0  0  0  0  0  0
   -4.2868   -3.3000    0.0000 C   0  0  0  0  0  0  0  0  0  0  0  0
  1  2  1  0  0  0  0
  2  3  1  0  0  0  0
  3  4  2  0  0  0  0
  3  5  1  0  0  0  0
  5  6  2  0  0  0  0
  6  7  1  0  0  0  0
  6  8  1  0  0  0  0
  8  9  1  0  0  0  0
  9 10  1  0  0  0  0
  9 11  2  0  0  0  0
 11 12  1  0  0  0  0
 12 13  2  0  0  0  0
 12 14  1  0  0  0  0
 14 15  1  0  0  0  0
 15 16  1  0  0  0  0
 16 17  1  0  0  0  0
 17 18  1  0  0  0  0
 17 19  1  0  0  0  0
 19 20  1  0  0  0  0
 20 21  2  0  0  0  0
 21 22  1  0  0  0  0
 22 23  2  0  0  0  0
 23 24  1  0  0  0  0
 24 25  2  0  0  0  0
 20 25  1  0  0  0  0
 11 26  1  0  0  0  0
  5 26  1  0  0  0  0
 26 27  1  0  0  0  0
 27 28  2  0  0  0  0
 28 29  1  0  0  0  0
 29 30  2  0  0  0  0
 30 31  1  0  0  0  0
 31 32  1  0  0  0  0
 32 33  2  0  0  0  0
 32 34  1  0  0  0  0
 31 35  2  0  0  0  0
 27 35  1  0  0  0  0
M  CHG  2  32   1  34  -1
M  END
>  <StandardizerResult>
Tautomerize


>  <CdId>
194

>  <Mol Weight>
479.53

>  <Formula>
C26H29N3O6

>  <Molecule ChEMBL ID>
CHEMBL1484

>  <Molecule Name>
NICARDIPINE

>  <Molecule Max Phase>
4

>  <Molecular Weight>
479.53

>  <#RO5 Violations>
0

>  <AlogP>
3.68

>  <Compound Key>
833

>  <Standard Type>
pKa_B1

>  <Standard Value>
7.26

>  <Comment>
'B1 Functional Group: Tertiary amine; Ionisation Formula: A0B2 (Functional Group: the part of the molecule the pKa refers to; Ionisation formula: AxBy where 'A' refers to acidic centers within the molecule that are appreciably ionised at a pH <= 11 and 'x' equals 0, 1 or 2; and 'B' refers to basic centers within the molecule that are appreciably ionised at a pH >= 2 and 'y' equals 0, 1, 2 or 3).'

>  <Potential Duplicate>
false

>  <Assay ChEMBL ID>
CHEMBL3301362

>  <Assay Description>
ASTRAZENECA: Most basic pKa value (pKa B1) determined by absorption and potentiometric titration using standard methodology from Sirius Analytical. Experimental range Bases: >= 2.

>  <Assay Type>
P

>  <BAO Format ID>
BAO_0000100

>  <BAO Label>
small-molecule physicochemical format

>  <Target ChEMBL ID>
CHEMBL2362975

>  <Target Name>
No relevant target

>  <Target Type>
NO TARGET

>  <Document ChEMBL ID>
CHEMBL3301361

>  <Source ID>
27

>  <Source Description>
AstraZeneca Deposited Data

>  <Strongest basic pKa>
8.1

>  <deltapKa>
-0.8350741727392172

>  <Strongest basic pKa_Taut>
8.1

>  <deltapKa_TAut>
-0.8350741727392172

$$$$

  Mrv1920 03272013312D          

 28 32  0  0  0  0            999 V2000
    0.8518   -4.1335    0.0000 O   0  0  0  0  0  0  0  0  0  0  0  0
    0.1373   -3.7210    0.0000 C   0  0  0  0  0  0  0  0  0  0  0  0
    0.1373   -2.8960    0.0000 N   0  0  0  0  0  0  0  0  0  0  0  0
    0.8517   -2.4835    0.0000 C   0  0  0  0  0  0  0  0  0  0  0  0
    0.8517   -1.6585    0.0000 C   0  0  0  0  0  0  0  0  0  0  0  0
    0.1163   -2.0322    0.0000 C   0  0  0  0  0  0  0  0  0  0  0  0
    0.5657   -1.2419    0.0000 C   0  0  0  0  0  0  0  0  0  0  0  0
    0.5657   -0.4945    0.0000 C   0  0  0  0  0  0  0  0  0  0  0  0
    1.3012   -0.1208    0.0000 C   0  0  0  0  0  0  0  0  0  0  0  0
    2.0368   -0.4945    0.0000 C   0  0  0  0  0  0  0  0  0  0  0  0
    2.0368   -1.2419    0.0000 C   0  0  0  0  0  0  0  0  0  0  0  0
    1.3012   -1.6156    0.0000 C   0  0  0  0  0  0  0  0  0  0  0  0
    1.5873   -2.0322    0.0000 C   0  0  0  0  0  0  0  0  0  0  0  0
    0.8517   -0.9111    0.0000 C   0  0  0  0  0  0  0  0  0  0  0  0
   -0.5771   -4.1336    0.0000 C   0  0  0  0  0  0  0  0  0  0  0  0
   -0.5771   -4.9586    0.0000 C   0  0  0  0  0  0  0  0  0  0  0  0
   -1.2915   -5.3711    0.0000 C   0  0  0  0  0  0  0  0  0  0  0  0
   -1.2915   -6.1961    0.0000 O   0  0  0  0  0  0  0  0  0  0  0  0
   -2.0059   -6.6087    0.0000 C   0  0  0  0  0  0  0  0  0  0  0  0
   -2.0059   -7.4337    0.0000 C   0  0  0  0  0  0  0  0  0  0  0  0
   -2.7203   -7.8462    0.0000 C   0  0  0  0  0  0  0  0  0  0  0  0
   -3.4348   -7.4337    0.0000 N   0  0  0  0  0  0  0  0  0  0  0  0
   -3.4349   -6.6087    0.0000 C   0  0  0  0  0  0  0  0  0  0  0  0
   -2.7204   -6.1962    0.0000 C   0  0  0  0  0  0  0  0  0  0  0  0
   -2.0060   -4.9587    0.0000 C   0  0  0  0  0  0  0  0  0  0  0  0
   -2.0060   -4.1337    0.0000 C   0  0  0  0  0  0  0  0  0  0  0  0
   -1.2916   -3.7211    0.0000 C   0  0  0  0  0  0  0  0  0  0  0  0
   -1.2916   -2.8961    0.0000 Cl  0  0  0  0  0  0  0  0  0  0  0  0
  1  2  2  0  0  0  0
  2  3  1  0  0  0  0
  3  4  1  0  0  0  0
  4  5  1  0  0  0  0
  5  6  1  0  0  0  0
  6  7  1  0  0  0  0
  9 14  1  0  0  0  0
  8  9  1  0  0  0  0
  9 10  1  0  0  0  0
  5 13  1  0  0  0  0
 11 12  1  0  0  0  0
  7 12  1  0  0  0  0
 11 13  1  0  0  0  0
 10 11  1  0  0  0  0
  7  8  1  0  0  0  0
  5 14  1  0  0  0  0
  2 15  1  0  0  0  0
 15 16  2  0  0  0  0
 16 17  1  0  0  0  0
 17 18  1  0  0  0  0
 18 19  1  0  0  0  0
 19 20  1  0  0  0  0
 20 21  1  0  0  0  0
 21 22  1  0  0  0  0
 22 23  1  0  0  0  0
 23 24  1  0  0  0  0
 19 24  1  0  0  0  0
 17 25  2  0  0  0  0
 25 26  1  0  0  0  0
 26 27  2  0  0  0  0
 15 27  1  0  0  0  0
 27 28  1  0  0  0  0
M  END
>  <StandardizerResult>
Tautomerize


>  <CdId>
9

>  <Mol Weight>
402.96

>  <Formula>
C23H31ClN2O2

>  <Molecule ChEMBL ID>
CHEMBL393384

>  <Molecule Max Phase>
0

>  <Molecular Weight>
402.97

>  <#RO5 Violations>
0

>  <AlogP>
4.42

>  <Compound Key>
1588

>  <Standard Type>
pKa_B1

>  <Standard Value>
9.0

>  <Comment>
'B1 Functional Group: Piperidine; Ionisation Formula: A0B1 (Functional Group: the part of the molecule the pKa refers to; Ionisation formula: AxBy where 'A' refers to acidic centers within the molecule that are appreciably ionised at a pH <= 11 and 'x' equals 0, 1 or 2; and 'B' refers to basic centers within the molecule that are appreciably ionised at a pH >= 2 and 'y' equals 0, 1, 2 or 3).'

>  <Potential Duplicate>
false

>  <Assay ChEMBL ID>
CHEMBL3301362

>  <Assay Description>
ASTRAZENECA: Most basic pKa value (pKa B1) determined by absorption and potentiometric titration using standard methodology from Sirius Analytical. Experimental range Bases: >= 2.

>  <Assay Type>
P

>  <BAO Format ID>
BAO_0000100

>  <BAO Label>
small-molecule physicochemical format

>  <Target ChEMBL ID>
CHEMBL2362975

>  <Target Name>
No relevant target

>  <Target Type>
NO TARGET

>  <Document ChEMBL ID>
CHEMBL3301361

>  <Source ID>
27

>  <Source Description>
AstraZeneca Deposited Data

>  <Strongest basic pKa>
9.82

>  <deltapKa>
-0.8225783565027438

>  <Strongest basic pKa_Taut>
9.82

>  <deltapKa_TAut>
-0.8225783565027438

$$$$

  Mrv1920 03272013312D          

 16 17  0  0  0  0            999 V2000
    2.4379   -2.4104    0.0000 N   0  0  0  0  0  0  0  0  0  0  0  0
    1.8859   -1.7973    0.0000 C   0  0  0  0  0  0  0  0  0  0  0  0
    1.0789   -1.9688    0.0000 N   0  0  0  0  0  0  0  0  0  0  0  0
    0.5269   -1.3557    0.0000 C   0  0  0  0  0  0  0  0  0  0  0  0
   -0.2801   -1.5273    0.0000 O   0  0  0  0  0  0  0  0  0  0  0  0
    0.7818   -0.5711    0.0000 C   0  0  0  0  0  0  0  0  0  0  0  0
    0.3693    0.1433    0.0000 N   0  0  0  0  0  0  0  0  0  0  0  0
    0.9213    0.7564    0.0000 C   0  0  0  0  0  0  0  0  0  0  0  0
    1.6750    0.4209    0.0000 N   0  0  0  0  0  0  0  0  0  0  0  0
    2.3895    0.8334    0.0000 C   0  0  0  0  0  0  0  0  0  0  0  0
    3.1039    0.4209    0.0000 O   0  0  0  0  0  0  0  0  0  0  0  0
    3.8184    0.8334    0.0000 C   0  0  0  0  0  0  0  0  0  0  0  0
    4.5329    0.4209    0.0000 C   0  0  0  0  0  0  0  0  0  0  0  0
    5.2474    0.8334    0.0000 O   0  0  0  0  0  0  0  0  0  0  0  0
    1.5888   -0.3996    0.0000 C   0  0  0  0  0  0  0  0  0  0  0  0
    2.1408   -1.0127    0.0000 N   0  0  0  0  0  0  0  0  0  0  0  0
  1  2  1  0  0  0  0
  2  3  2  0  0  0  0
  3  4  1  0  0  0  0
  4  5  2  0  0  0  0
  4  6  1  0  0  0  0
  6  7  1  0  0  0  0
  7  8  2  0  0  0  0
  8  9  1  0  0  0  0
  9 10  1  0  0  0  0
 10 11  1  0  0  0  0
 11 12  1  0  0  0  0
 12 13  1  0  0  0  0
 13 14  1  0  0  0  0
  9 15  1  0  0  0  0
  6 15  2  0  0  0  0
 15 16  1  0  0  0  0
  2 16  1  0  0  0  0
M  END
>  <StandardizerResult>
Tautomerize


>  <CdId>
110

>  <Mol Weight>
225.21

>  <Formula>
C8H11N5O3

>  <Molecule ChEMBL ID>
CHEMBL184

>  <Molecule Name>
ACYCLOVIR

>  <Molecule Max Phase>
4

>  <Molecular Weight>
225.21

>  <#RO5 Violations>
0

>  <AlogP>
-0.92

>  <Compound Key>
ACV

>  <Standard Type>
pKa_B1

>  <Standard Value>
2.2

>  <Comment>
'B1 Functional Group: 9H-purin-6-ol, 2-amino-; Ionisation Formula: A1B1 (Functional Group: the part of the molecule the pKa refers to; Ionisation formula: AxBy where 'A' refers to acidic centers within the molecule that are appreciably ionised at a pH <= 11 and 'x' equals 0, 1 or 2; and 'B' refers to basic centers within the molecule that are appreciably ionised at a pH >= 2 and 'y' equals 0, 1, 2 or 3).'

>  <Potential Duplicate>
false

>  <Assay ChEMBL ID>
CHEMBL3301362

>  <Assay Description>
ASTRAZENECA: Most basic pKa value (pKa B1) determined by absorption and potentiometric titration using standard methodology from Sirius Analytical. Experimental range Bases: >= 2.

>  <Assay Type>
P

>  <BAO Format ID>
BAO_0000100

>  <BAO Label>
small-molecule physicochemical format

>  <Target ChEMBL ID>
CHEMBL2362975

>  <Target Name>
No relevant target

>  <Target Type>
NO TARGET

>  <Document ChEMBL ID>
CHEMBL3301361

>  <Source ID>
27

>  <Source Description>
AstraZeneca Deposited Data

>  <Strongest basic pKa>
1.01

>  <deltapKa>
1.187053403813962

>  <Strongest basic pKa_Taut>
3.02

>  <deltapKa_TAut>
-0.8163894181545692

$$$$

  Mrv1920 03272013312D          

 28 31  0  0  0  0            999 V2000
   -4.8605   -2.4225    0.0000 C   0  0  0  0  0  0  0  0  0  0  0  0
   -4.0401   -2.5087    0.0000 O   0  0  0  0  0  0  0  0  0  0  0  0
   -3.5551   -1.8413    0.0000 N   0  0  0  0  0  0  0  0  0  0  0  0
   -2.7346   -1.9275    0.0000 C   0  0  0  0  0  0  0  0  0  0  0  0
   -2.1826   -1.3144    0.0000 C   0  0  0  0  0  0  0  0  0  0  0  0
   -1.4289   -1.6500    0.0000 N   0  0  0  0  0  0  0  0  0  0  0  0
   -0.7145   -1.2375    0.0000 C   0  0  0  0  0  0  0  0  0  0  0  0
    0.0000   -1.6500    0.0000 N   0  0  0  0  0  0  0  0  0  0  0  0
    0.7145   -1.2375    0.0000 C   0  0  0  0  0  0  0  0  0  0  0  0
    0.7145   -0.4125    0.0000 C   0  0  0  0  0  0  0  0  0  0  0  0
    0.0000    0.0000    0.0000 C   0  0  0  0  0  0  0  0  0  0  0  0
   -0.7145   -0.4125    0.0000 C   0  0  0  0  0  0  0  0  0  0  0  0
   -1.4289    0.0000    0.0000 F   0  0  0  0  0  0  0  0  0  0  0  0
    1.4289    0.0000    0.0000 C   0  0  0  0  0  0  0  0  0  0  0  0
    1.4289    0.8250    0.0000 O   0  0  0  0  0  0  0  0  0  0  0  0
    2.1434   -0.4125    0.0000 C   0  0  0  0  0  0  0  0  0  0  0  0
    2.8579    0.0000    0.0000 C   0  0  0  0  0  0  0  0  0  0  0  0
    2.8579    0.8250    0.0000 O   0  0  0  0  0  0  0  0  0  0  0  0
    3.5724   -0.4125    0.0000 O   0  0  0  0  0  0  0  0  0  0  0  0
    2.1434   -1.2375    0.0000 C   0  0  0  0  0  0  0  0  0  0  0  0
    1.4289   -1.6500    0.0000 N   0  0  0  0  0  0  0  0  0  0  0  0
    1.4289   -2.4750    0.0000 C   0  0  0  0  0  0  0  0  0  0  0  0
    1.8414   -3.1895    0.0000 C   0  0  0  0  0  0  0  0  0  0  0  0
    1.0164   -3.1895    0.0000 C   0  0  0  0  0  0  0  0  0  0  0  0
   -1.5152   -2.4705    0.0000 C   0  0  0  0  0  0  0  0  0  0  0  0
   -2.3221   -2.6420    0.0000 C   0  0  0  0  0  0  0  0  0  0  0  0
   -2.6577   -3.3957    0.0000 C   0  0  0  0  0  0  0  0  0  0  0  0
   -3.4782   -3.4819    0.0000 N   0  0  0  0  0  0  0  0  0  0  0  0
  1  2  1  0  0  0  0
  3  2  1  4  0  0  0
  3  4  2  0  0  0  0
  4  5  1  0  0  0  0
  5  6  1  0  0  0  0
  6  7  1  0  0  0  0
  7  8  1  0  0  0  0
  8  9  2  0  0  0  0
  9 10  1  0  0  0  0
 10 11  2  0  0  0  0
 11 12  1  0  0  0  0
  7 12  2  0  0  0  0
 12 13  1  0  0  0  0
 10 14  1  0  0  0  0
 14 15  2  0  0  0  0
 14 16  1  0  0  0  0
 16 17  1  0  0  0  0
 17 18  2  0  0  0  0
 17 19  1  0  0  0  0
 16 20  2  0  0  0  0
 20 21  1  0  0  0  0
  9 21  1  0  0  0  0
 21 22  1  0  0  0  0
 22 23  1  0  0  0  0
 23 24  1  0  0  0  0
 22 24  1  0  0  0  0
  6 25  1  0  0  0  0
 25 26  1  0  0  0  0
  4 26  1  0  0  0  0
 26 27  1  0  0  0  0
 27 28  1  0  0  0  0
M  END
>  <StandardizerResult>
Tautomerize


>  <CdId>
250

>  <Mol Weight>
389.39

>  <Formula>
C18H20FN5O4

>  <Molecule ChEMBL ID>
CHEMBL430

>  <Molecule Name>
GEMIFLOXACIN

>  <Molecule Max Phase>
4

>  <Molecular Weight>
389.39

>  <#RO5 Violations>
0

>  <AlogP>
0.97

>  <Compound Key>
4808

>  <Standard Type>
pKa_B1

>  <Standard Value>
8.6

>  <Comment>
'B1 Functional Group: Primary amine; Ionisation Formula: A1B1 (Functional Group: the part of the molecule the pKa refers to; Ionisation formula: AxBy where 'A' refers to acidic centers within the molecule that are appreciably ionised at a pH <= 11 and 'x' equals 0, 1 or 2; and 'B' refers to basic centers within the molecule that are appreciably ionised at a pH >= 2 and 'y' equals 0, 1, 2 or 3).'

>  <Potential Duplicate>
false

>  <Assay ChEMBL ID>
CHEMBL3301362

>  <Assay Description>
ASTRAZENECA: Most basic pKa value (pKa B1) determined by absorption and potentiometric titration using standard methodology from Sirius Analytical. Experimental range Bases: >= 2.

>  <Assay Type>
P

>  <BAO Format ID>
BAO_0000100

>  <BAO Label>
small-molecule physicochemical format

>  <Target ChEMBL ID>
CHEMBL2362975

>  <Target Name>
No relevant target

>  <Target Type>
NO TARGET

>  <Document ChEMBL ID>
CHEMBL3301361

>  <Source ID>
27

>  <Source Description>
AstraZeneca Deposited Data

>  <Strongest basic pKa>
9.41

>  <deltapKa>
-0.812187599457781

>  <Strongest basic pKa_Taut>
9.41

>  <deltapKa_TAut>
-0.812187599457781

$$$$

  Mrv1920 03272013312D          

 24 26  0  0  0  0            999 V2000
    5.7158    0.0000    0.0000 C   0  0  0  0  0  0  0  0  0  0  0  0
    5.0013   -0.4125    0.0000 O   0  0  0  0  0  0  0  0  0  0  0  0
    5.0013   -1.2375    0.0000 C   0  0  0  0  0  0  0  0  0  0  0  0
    5.7158   -1.6500    0.0000 C   0  0  0  0  0  0  0  0  0  0  0  0
    5.7158   -2.4750    0.0000 C   0  0  0  0  0  0  0  0  0  0  0  0
    5.0013   -2.8875    0.0000 N   0  0  0  0  0  0  0  0  0  0  0  0
    4.2868   -2.4750    0.0000 C   0  0  0  0  0  0  0  0  0  0  0  0
    3.5724   -2.8875    0.0000 N   0  0  0  0  0  0  0  0  0  0  0  0
    2.8579   -2.4750    0.0000 C   0  0  0  0  0  0  0  0  0  0  0  0
    2.1434   -2.8875    0.0000 C   0  0  0  0  0  0  0  0  0  0  0  0
    1.4289   -2.4750    0.0000 C   0  0  0  0  0  0  0  0  0  0  0  0
    1.4289   -1.6500    0.0000 N   0  0  0  0  0  0  0  0  0  0  0  0
    0.7145   -1.2375    0.0000 C   0  0  0  0  0  0  0  0  0  0  0  0
    0.0000   -1.6500    0.0000 O   0  0  0  0  0  0  0  0  0  0  0  0
    0.7145   -0.4125    0.0000 C   0  0  0  0  0  0  0  0  0  0  0  0
    0.0000    0.0000    0.0000 C   0  0  0  0  0  0  0  0  0  0  0  0
    0.0000    0.8250    0.0000 C   0  0  0  0  0  0  0  0  0  0  0  0
    0.7145    1.2375    0.0000 C   0  0  0  0  0  0  0  0  0  0  0  0
    0.7145    2.0625    0.0000 Cl  0  0  0  0  0  0  0  0  0  0  0  0
    1.4289    0.8250    0.0000 C   0  0  0  0  0  0  0  0  0  0  0  0
    1.4289    0.0000    0.0000 C   0  0  0  0  0  0  0  0  0  0  0  0
    2.1434   -1.2375    0.0000 C   0  0  0  0  0  0  0  0  0  0  0  0
    2.8579   -1.6500    0.0000 C   0  0  0  0  0  0  0  0  0  0  0  0
    4.2868   -1.6500    0.0000 C   0  0  0  0  0  0  0  0  0  0  0  0
  1  2  1  0  0  0  0
  2  3  1  0  0  0  0
  3  4  2  0  0  0  0
  4  5  1  0  0  0  0
  5  6  2  0  0  0  0
  6  7  1  0  0  0  0
  7  8  1  0  0  0  0
  8  9  1  0  0  0  0
  9 10  1  0  0  0  0
 10 11  1  0  0  0  0
 11 12  1  0  0  0  0
 12 13  1  0  0  0  0
 13 14  2  0  0  0  0
 13 15  1  0  0  0  0
 15 16  2  0  0  0  0
 16 17  1  0  0  0  0
 17 18  2  0  0  0  0
 18 19  1  0  0  0  0
 18 20  1  0  0  0  0
 20 21  2  0  0  0  0
 15 21  1  0  0  0  0
 12 22  1  0  0  0  0
 22 23  1  0  0  0  0
  9 23  1  0  0  0  0
  7 24  2  0  0  0  0
  3 24  1  0  0  0  0
M  END
>  <StandardizerResult>
Tautomerize


>  <CdId>
22

>  <Mol Weight>
345.83

>  <Formula>
C18H20ClN3O2

>  <Molecule ChEMBL ID>
CHEMBL112866

>  <Molecule Max Phase>
0

>  <Molecular Weight>
345.83

>  <#RO5 Violations>
0

>  <AlogP>
3.46

>  <Compound Key>
1682

>  <Standard Type>
pKa_B1

>  <Standard Value>
7.2

>  <Comment>
'B1 Functional Group: 2-Pyridinamine; Ionisation Formula: A0B1 (Functional Group: the part of the molecule the pKa refers to; Ionisation formula: AxBy where 'A' refers to acidic centers within the molecule that are appreciably ionised at a pH <= 11 and 'x' equals 0, 1 or 2; and 'B' refers to basic centers within the molecule that are appreciably ionised at a pH >= 2 and 'y' equals 0, 1, 2 or 3).'

>  <Potential Duplicate>
false

>  <Assay ChEMBL ID>
CHEMBL3301362

>  <Assay Description>
ASTRAZENECA: Most basic pKa value (pKa B1) determined by absorption and potentiometric titration using standard methodology from Sirius Analytical. Experimental range Bases: >= 2.

>  <Assay Type>
P

>  <BAO Format ID>
BAO_0000100

>  <BAO Label>
small-molecule physicochemical format

>  <Target ChEMBL ID>
CHEMBL2362975

>  <Target Name>
No relevant target

>  <Target Type>
NO TARGET

>  <Document ChEMBL ID>
CHEMBL3301361

>  <Source ID>
27

>  <Source Description>
AstraZeneca Deposited Data

>  <Strongest basic pKa>
7.97

>  <deltapKa>
-0.7740723244319625

>  <Strongest basic pKa_Taut>
7.97

>  <deltapKa_TAut>
-0.7740723244319625

$$$$

  Mrv1920 03272013312D          

 20 21  0  0  0  0            999 V2000
    0.7145    1.2375    0.0000 C   0  0  0  0  0  0  0  0  0  0  0  0
    1.4289    0.8250    0.0000 C   0  0  0  0  0  0  0  0  0  0  0  0
    1.4289    0.0000    0.0000 O   0  0  0  0  0  0  0  0  0  0  0  0
    2.1434   -0.4125    0.0000 C   0  0  0  0  0  0  0  0  0  0  0  0
    2.8579    0.0000    0.0000 O   0  0  0  0  0  0  0  0  0  0  0  0
    2.1434   -1.2375    0.0000 N   0  0  0  0  0  0  0  0  0  0  0  0
    2.8579   -1.6500    0.0000 C   0  0  0  0  0  0  0  0  0  0  0  0
    2.8579   -2.4750    0.0000 C   0  0  0  0  0  0  0  0  0  0  0  0
    2.1434   -2.8875    0.0000 C   0  0  0  0  0  0  0  0  0  0  0  0
    2.1434   -3.7125    0.0000 N   0  0  0  0  0  0  0  0  0  0  0  0
    1.4289   -4.1250    0.0000 C   0  0  0  0  0  0  0  0  0  0  0  0
    1.4289   -4.9500    0.0000 C   0  0  0  0  0  0  0  0  0  0  0  0
    0.7145   -5.3625    0.0000 C   0  0  0  0  0  0  0  0  0  0  0  0
    0.7145   -6.1875    0.0000 O   0  0  0  0  0  0  0  0  0  0  0  0
    1.4289   -6.6000    0.0000 C   0  0  0  0  0  0  0  0  0  0  0  0
    0.0000   -4.9500    0.0000 C   0  0  0  0  0  0  0  0  0  0  0  0
    0.0000   -4.1250    0.0000 C   0  0  0  0  0  0  0  0  0  0  0  0
    0.7145   -3.7125    0.0000 N   0  0  0  0  0  0  0  0  0  0  0  0
    1.4289   -2.4750    0.0000 C   0  0  0  0  0  0  0  0  0  0  0  0
    1.4289   -1.6500    0.0000 C   0  0  0  0  0  0  0  0  0  0  0  0
  1  2  1  0  0  0  0
  2  3  1  0  0  0  0
  3  4  1  0  0  0  0
  4  5  2  0  0  0  0
  4  6  1  0  0  0  0
  6  7  1  0  0  0  0
  7  8  1  0  0  0  0
  8  9  1  0  0  0  0
  9 10  1  0  0  0  0
 10 11  1  0  0  0  0
 11 12  2  0  0  0  0
 12 13  1  0  0  0  0
 13 14  1  0  0  0  0
 14 15  1  0  0  0  0
 13 16  2  0  0  0  0
 16 17  1  0  0  0  0
 17 18  2  0  0  0  0
 11 18  1  0  0  0  0
  9 19  1  0  0  0  0
 19 20  1  0  0  0  0
  6 20  1  0  0  0  0
M  END
>  <StandardizerResult>
Tautomerize


>  <CdId>
212

>  <Mol Weight>
279.34

>  <Formula>
C14H21N3O3

>  <Molecule ChEMBL ID>
CHEMBL112246

>  <Molecule Max Phase>
0

>  <Molecular Weight>
279.34

>  <#RO5 Violations>
0

>  <AlogP>
2.12

>  <Compound Key>
1637

>  <Standard Type>
pKa_B1

>  <Standard Value>
7.2

>  <Comment>
'B1 Functional Group: 2-Pyridinamine; Ionisation Formula: A0B1 (Functional Group: the part of the molecule the pKa refers to; Ionisation formula: AxBy where 'A' refers to acidic centers within the molecule that are appreciably ionised at a pH <= 11 and 'x' equals 0, 1 or 2; and 'B' refers to basic centers within the molecule that are appreciably ionised at a pH >= 2 and 'y' equals 0, 1, 2 or 3).'

>  <Potential Duplicate>
false

>  <Assay ChEMBL ID>
CHEMBL3301362

>  <Assay Description>
ASTRAZENECA: Most basic pKa value (pKa B1) determined by absorption and potentiometric titration using standard methodology from Sirius Analytical. Experimental range Bases: >= 2.

>  <Assay Type>
P

>  <BAO Format ID>
BAO_0000100

>  <BAO Label>
small-molecule physicochemical format

>  <Target ChEMBL ID>
CHEMBL2362975

>  <Target Name>
No relevant target

>  <Target Type>
NO TARGET

>  <Document ChEMBL ID>
CHEMBL3301361

>  <Source ID>
27

>  <Source Description>
AstraZeneca Deposited Data

>  <Strongest basic pKa>
7.97

>  <deltapKa>
-0.7740721476547918

>  <Strongest basic pKa_Taut>
7.97

>  <deltapKa_TAut>
-0.7740721476547918

$$$$

  Mrv1920 03272013312D          

 20 22  0  0  0  0            999 V2000
    2.1434   -5.3625    0.0000 C   0  0  0  0  0  0  0  0  0  0  0  0
    1.4289   -4.9500    0.0000 C   0  0  0  0  0  0  0  0  0  0  0  0
    0.7145   -5.3625    0.0000 C   0  0  0  0  0  0  0  0  0  0  0  0
    0.0000   -4.9500    0.0000 C   0  0  0  0  0  0  0  0  0  0  0  0
    0.0000   -4.1250    0.0000 N   0  0  0  0  0  0  0  0  0  0  0  0
    0.7145   -3.7125    0.0000 C   0  0  0  0  0  0  0  0  0  0  0  0
    0.7145   -2.8875    0.0000 N   0  0  0  0  0  0  0  0  0  0  0  0
    1.4289   -2.4750    0.0000 C   0  0  0  0  0  0  0  0  0  0  0  0
    1.4289   -1.6500    0.0000 C   0  0  0  0  0  0  0  0  0  0  0  0
    0.7145   -1.2375    0.0000 C   0  0  0  0  0  0  0  0  0  0  0  0
    0.0000   -1.6500    0.0000 O   0  0  0  0  0  0  0  0  0  0  0  0
    0.7145   -0.4125    0.0000 C   0  0  0  0  0  0  0  0  0  0  0  0
    1.4289    0.0000    0.0000 C   0  0  0  0  0  0  0  0  0  0  0  0
    2.1434   -0.4125    0.0000 C   0  0  0  0  0  0  0  0  0  0  0  0
    2.8579    0.0000    0.0000 C   0  0  0  0  0  0  0  0  0  0  0  0
    3.5724   -0.4125    0.0000 C   0  0  0  0  0  0  0  0  0  0  0  0
    3.5724   -1.2375    0.0000 C   0  0  0  0  0  0  0  0  0  0  0  0
    2.8579   -1.6500    0.0000 C   0  0  0  0  0  0  0  0  0  0  0  0
    2.1434   -1.2375    0.0000 C   0  0  0  0  0  0  0  0  0  0  0  0
    1.4289   -4.1250    0.0000 C   0  0  0  0  0  0  0  0  0  0  0  0
  1  2  1  0  0  0  0
  2  3  2  0  0  0  0
  3  4  1  0  0  0  0
  4  5  2  0  0  0  0
  5  6  1  0  0  0  0
  6  7  1  0  0  0  0
  7  8  1  0  0  0  0
  8  9  1  0  0  0  0
  9 10  2  0  0  0  0
 10 11  1  0  0  0  0
 10 12  1  0  0  0  0
 12 13  2  0  0  0  0
 13 14  1  0  0  0  0
 14 15  2  0  0  0  0
 15 16  1  0  0  0  0
 16 17  2  0  0  0  0
 17 18  1  0  0  0  0
 18 19  2  0  0  0  0
  9 19  1  0  0  0  0
 14 19  1  0  0  0  0
  6 20  2  0  0  0  0
  2 20  1  0  0  0  0
M  END
>  <StandardizerResult>
Tautomerize


>  <CdId>
82

>  <Mol Weight>
264.33

>  <Formula>
C17H16N2O

>  <Molecule ChEMBL ID>
CHEMBL1539253

>  <Molecule Max Phase>
0

>  <Molecular Weight>
264.33

>  <#RO5 Violations>
0

>  <AlogP>
3.86

>  <Compound Key>
1630

>  <Standard Type>
pKa_B1

>  <Standard Value>
6.6

>  <Comment>
'B1 Functional Group: 2-Pyridinamine; Ionisation Formula: A1B1 (Functional Group: the part of the molecule the pKa refers to; Ionisation formula: AxBy where 'A' refers to acidic centers within the molecule that are appreciably ionised at a pH <= 11 and 'x' equals 0, 1 or 2; and 'B' refers to basic centers within the molecule that are appreciably ionised at a pH >= 2 and 'y' equals 0, 1, 2 or 3).'

>  <Potential Duplicate>
false

>  <Assay ChEMBL ID>
CHEMBL3301362

>  <Assay Description>
ASTRAZENECA: Most basic pKa value (pKa B1) determined by absorption and potentiometric titration using standard methodology from Sirius Analytical. Experimental range Bases: >= 2.

>  <Assay Type>
P

>  <BAO Format ID>
BAO_0000100

>  <BAO Label>
small-molecule physicochemical format

>  <Target ChEMBL ID>
CHEMBL2362975

>  <Target Name>
No relevant target

>  <Target Type>
NO TARGET

>  <Document ChEMBL ID>
CHEMBL3301361

>  <Source ID>
27

>  <Source Description>
AstraZeneca Deposited Data

>  <Strongest basic pKa>
7.37

>  <deltapKa>
-0.7676426064205071

>  <Strongest basic pKa_Taut>
7.37

>  <deltapKa_TAut>
-0.7676426064205071

$$$$

  Mrv1920 03272013312D          

 33 36  0  0  0  0            999 V2000
    7.1447   -2.4750    0.0000 O   0  0  0  0  0  0  0  0  0  0  0  0
    7.8592   -2.0625    0.0000 C   0  0  0  0  0  0  0  0  0  0  0  0
    8.5737   -2.4750    0.0000 N   0  0  0  0  0  0  0  0  0  0  0  0
    8.5737   -3.3000    0.0000 S   0  0  0  0  0  0  0  0  0  0  0  0
    9.3987   -3.3000    0.0000 O   0  0  0  0  0  0  0  0  0  0  0  0
    7.7487   -3.3000    0.0000 O   0  0  0  0  0  0  0  0  0  0  0  0
    8.5737   -4.1250    0.0000 C   0  0  0  0  0  0  0  0  0  0  0  0
    9.2881   -4.5375    0.0000 C   0  0  0  0  0  0  0  0  0  0  0  0
    9.2881   -5.3625    0.0000 C   0  0  0  0  0  0  0  0  0  0  0  0
    8.5737   -5.7750    0.0000 C   0  0  0  0  0  0  0  0  0  0  0  0
    7.8592   -5.3625    0.0000 C   0  0  0  0  0  0  0  0  0  0  0  0
    7.8592   -4.5375    0.0000 C   0  0  0  0  0  0  0  0  0  0  0  0
    7.8592   -1.2375    0.0000 N   0  0  0  0  0  0  0  0  0  0  0  0
    7.1447   -0.8250    0.0000 C   0  0  0  0  0  0  0  0  0  0  0  0
    7.1447    0.0000    0.0000 C   0  0  0  0  0  0  0  0  0  0  0  0
    7.8592    0.4125    0.0000 C   0  0  0  0  0  0  0  0  0  0  0  0
    7.8592    1.2375    0.0000 N   0  0  0  0  0  0  0  0  0  0  0  0
    7.1447    1.6500    0.0000 C   0  0  0  0  0  0  0  0  0  0  0  0
    7.1447    2.4750    0.0000 C   0  0  0  0  0  0  0  0  0  0  0  0
    7.8592    2.8875    0.0000 C   0  0  0  0  0  0  0  0  0  0  0  0
    7.8592    3.7125    0.0000 O   0  0  0  0  0  0  0  0  0  0  0  0
    8.5737    4.1250    0.0000 C   0  0  0  0  0  0  0  0  0  0  0  0
    8.5737    4.9500    0.0000 C   0  0  0  0  0  0  0  0  0  0  0  0
    9.2881    5.3625    0.0000 C   0  0  0  0  0  0  0  0  0  0  0  0
   10.0026    4.9500    0.0000 C   0  0  0  0  0  0  0  0  0  0  0  0
   10.7171    5.3625    0.0000 Cl  0  0  0  0  0  0  0  0  0  0  0  0
   10.0026    4.1250    0.0000 C   0  0  0  0  0  0  0  0  0  0  0  0
   10.7171    3.7125    0.0000 Cl  0  0  0  0  0  0  0  0  0  0  0  0
    9.2881    3.7125    0.0000 C   0  0  0  0  0  0  0  0  0  0  0  0
    8.5737    2.4750    0.0000 C   0  0  0  0  0  0  0  0  0  0  0  0
    8.5737    1.6500    0.0000 C   0  0  0  0  0  0  0  0  0  0  0  0
    8.5737    0.0000    0.0000 C   0  0  0  0  0  0  0  0  0  0  0  0
    8.5737   -0.8250    0.0000 C   0  0  0  0  0  0  0  0  0  0  0  0
  1  2  2  0  0  0  0
  2  3  1  0  0  0  0
  3  4  1  0  0  0  0
  4  5  2  0  0  0  0
  4  6  2  0  0  0  0
  4  7  1  0  0  0  0
  7  8  2  0  0  0  0
  8  9  1  0  0  0  0
  9 10  2  0  0  0  0
 10 11  1  0  0  0  0
 11 12  2  0  0  0  0
  7 12  1  0  0  0  0
  2 13  1  0  0  0  0
 13 14  1  0  0  0  0
 14 15  1  0  0  0  0
 15 16  1  0  0  0  0
 16 17  1  0  0  0  0
 17 18  1  0  0  0  0
 18 19  1  0  0  0  0
 19 20  1  0  0  0  0
 20 21  1  0  0  0  0
 21 22  1  0  0  0  0
 22 23  2  0  0  0  0
 23 24  1  0  0  0  0
 24 25  2  0  0  0  0
 25 26  1  0  0  0  0
 25 27  1  0  0  0  0
 27 28  1  0  0  0  0
 27 29  2  0  0  0  0
 22 29  1  0  0  0  0
 20 30  1  0  0  0  0
 30 31  1  0  0  0  0
 17 31  1  0  0  0  0
 16 32  1  0  0  0  0
 32 33  1  0  0  0  0
 13 33  1  0  0  0  0
M  END
>  <StandardizerResult>
Tautomerize


>  <CdId>
91

>  <Mol Weight>
512.45

>  <Formula>
C23H27Cl2N3O4S

>  <Molecule ChEMBL ID>
CHEMBL2171033

>  <Molecule Max Phase>
0

>  <Molecular Weight>
512.46

>  <#RO5 Violations>
1

>  <AlogP>
4.4

>  <Compound Key>
1560

>  <Standard Type>
pKa_B1

>  <Standard Value>
8.1

>  <Comment>
'B1 Functional Group: Piperidine; Ionisation Formula: A1B1 (Functional Group: the part of the molecule the pKa refers to; Ionisation formula: AxBy where 'A' refers to acidic centers within the molecule that are appreciably ionised at a pH <= 11 and 'x' equals 0, 1 or 2; and 'B' refers to basic centers within the molecule that are appreciably ionised at a pH >= 2 and 'y' equals 0, 1, 2 or 3).'

>  <Potential Duplicate>
false

>  <Assay ChEMBL ID>
CHEMBL3301362

>  <Assay Description>
ASTRAZENECA: Most basic pKa value (pKa B1) determined by absorption and potentiometric titration using standard methodology from Sirius Analytical. Experimental range Bases: >= 2.

>  <Assay Type>
P

>  <BAO Format ID>
BAO_0000100

>  <BAO Label>
small-molecule physicochemical format

>  <Target ChEMBL ID>
CHEMBL2362975

>  <Target Name>
No relevant target

>  <Target Type>
NO TARGET

>  <Document ChEMBL ID>
CHEMBL3301361

>  <Source ID>
27

>  <Source Description>
AstraZeneca Deposited Data

>  <Strongest basic pKa>
8.84

>  <deltapKa>
-0.7412604829677409

>  <Strongest basic pKa_Taut>
8.84

>  <deltapKa_TAut>
-0.7412604829677409

$$$$

  Mrv1920 03272013312D          

 26 29  0  0  0  0            999 V2000
    4.2624   -3.2300    0.0000 C   0  0  0  0  0  0  0  0  0  0  0  0
    3.4554   -3.4015    0.0000 C   0  0  0  0  0  0  0  0  0  0  0  0
    3.2004   -4.1861    0.0000 C   0  0  0  0  0  0  0  0  0  0  0  0
    2.3935   -4.3576    0.0000 C   0  0  0  0  0  0  0  0  0  0  0  0
    1.8414   -3.7445    0.0000 C   0  0  0  0  0  0  0  0  0  0  0  0
    2.0964   -2.9599    0.0000 C   0  0  0  0  0  0  0  0  0  0  0  0
    2.9034   -2.7884    0.0000 C   0  0  0  0  0  0  0  0  0  0  0  0
    1.4289   -2.4750    0.0000 C   0  0  0  0  0  0  0  0  0  0  0  0
    1.4289   -1.6500    0.0000 C   0  0  0  0  0  0  0  0  0  0  0  0
    0.7145   -1.2375    0.0000 C   0  0  0  0  0  0  0  0  0  0  0  0
    0.7145   -0.4125    0.0000 C   0  0  0  0  0  0  0  0  0  0  0  0
    1.4289    0.0000    0.0000 N   0  0  0  0  0  0  0  0  0  0  0  0
    2.1434   -0.4125    0.0000 C   0  0  0  0  0  0  0  0  0  0  0  0
    2.8579    0.0000    0.0000 C   0  0  0  0  0  0  0  0  0  0  0  0
    3.5724   -0.4125    0.0000 C   0  0  0  0  0  0  0  0  0  0  0  0
    4.2868    0.0000    0.0000 Cl  0  0  0  0  0  0  0  0  0  0  0  0
    3.5724   -1.2375    0.0000 C   0  0  0  0  0  0  0  0  0  0  0  0
    2.8579   -1.6500    0.0000 C   0  0  0  0  0  0  0  0  0  0  0  0
    2.1434   -1.2375    0.0000 C   0  0  0  0  0  0  0  0  0  0  0  0
    0.7615   -2.9599    0.0000 C   0  0  0  0  0  0  0  0  0  0  0  0
   -0.0231   -2.7050    0.0000 C   0  0  0  0  0  0  0  0  0  0  0  0
    1.0164   -3.7445    0.0000 N   0  0  0  0  0  0  0  0  0  0  0  0
    0.5315   -4.4120    0.0000 C   0  0  0  0  0  0  0  0  0  0  0  0
   -0.2890   -4.3257    0.0000 C   0  0  0  0  0  0  0  0  0  0  0  0
   -0.7739   -4.9932    0.0000 O   0  0  0  0  0  0  0  0  0  0  0  0
   -0.6245   -3.5721    0.0000 O   0  0  0  0  0  0  0  0  0  0  0  0
  1  2  1  0  0  0  0
  2  3  2  0  0  0  0
  3  4  1  0  0  0  0
  4  5  2  0  0  0  0
  5  6  1  0  0  0  0
  6  7  2  0  0  0  0
  2  7  1  0  0  0  0
  6  8  1  0  0  0  0
  8  9  1  0  0  0  0
  9 10  2  0  0  0  0
 10 11  1  0  0  0  0
 11 12  2  0  0  0  0
 12 13  1  0  0  0  0
 13 14  2  0  0  0  0
 14 15  1  0  0  0  0
 15 16  1  0  0  0  0
 15 17  2  0  0  0  0
 17 18  1  0  0  0  0
 18 19  2  0  0  0  0
  9 19  1  0  0  0  0
 13 19  1  0  0  0  0
  8 20  2  0  0  0  0
 20 21  1  0  0  0  0
 20 22  1  0  0  0  0
  5 22  1  0  0  0  0
 22 23  1  0  0  0  0
 23 24  1  0  0  0  0
 24 25  2  0  0  0  0
 24 26  1  0  0  0  0
M  END
>  <StandardizerResult>
Tautomerize


>  <CdId>
248

>  <Mol Weight>
364.83

>  <Formula>
C21H17ClN2O2

>  <Molecule ChEMBL ID>
CHEMBL212777

>  <Molecule Max Phase>
0

>  <Molecular Weight>
364.83

>  <#RO5 Violations>
1

>  <AlogP>
5.21

>  <Compound Key>
2125

>  <Standard Type>
pKa_B1

>  <Standard Value>
2.6

>  <Comment>
'B1 Functional Group: Quinoline; Ionisation Formula: A1B1 (Functional Group: the part of the molecule the pKa refers to; Ionisation formula: AxBy where 'A' refers to acidic centers within the molecule that are appreciably ionised at a pH <= 11 and 'x' equals 0, 1 or 2; and 'B' refers to basic centers within the molecule that are appreciably ionised at a pH >= 2 and 'y' equals 0, 1, 2 or 3).'

>  <Potential Duplicate>
false

>  <Assay ChEMBL ID>
CHEMBL3301362

>  <Assay Description>
ASTRAZENECA: Most basic pKa value (pKa B1) determined by absorption and potentiometric titration using standard methodology from Sirius Analytical. Experimental range Bases: >= 2.

>  <Assay Type>
P

>  <BAO Format ID>
BAO_0000100

>  <BAO Label>
small-molecule physicochemical format

>  <Target ChEMBL ID>
CHEMBL2362975

>  <Target Name>
No relevant target

>  <Target Type>
NO TARGET

>  <Document ChEMBL ID>
CHEMBL3301361

>  <Source ID>
27

>  <Source Description>
AstraZeneca Deposited Data

>  <Strongest basic pKa>
3.33

>  <deltapKa>
-0.7327910849524786

>  <Strongest basic pKa_Taut>
3.33

>  <deltapKa_TAut>
-0.7327910849524786

$$$$

  Mrv1920 03272013312D          

 31 34  0  0  0  0            999 V2000
    6.4302    1.2375    0.0000 O   0  0  0  0  0  0  0  0  0  0  0  0
    7.1447    0.8250    0.0000 C   0  0  0  0  0  0  0  0  0  0  0  0
    7.8592    1.2375    0.0000 O   0  0  0  0  0  0  0  0  0  0  0  0
    7.1447    0.0000    0.0000 C   0  0  0  0  0  0  0  0  0  0  0  0
    7.8592   -0.4125    0.0000 C   0  0  0  0  0  0  0  0  0  0  0  0
    7.8592   -1.2375    0.0000 C   0  0  0  0  0  0  0  0  0  0  0  0
    7.1447   -1.6500    0.0000 C   0  0  0  0  0  0  0  0  0  0  0  0
    7.1447   -2.4750    0.0000 N   0  0  0  0  0  0  0  0  0  0  0  0
    7.8592   -2.8875    0.0000 C   0  0  0  0  0  0  0  0  0  0  0  0
    7.8592   -3.7125    0.0000 C   0  0  0  0  0  0  0  0  0  0  0  0
    7.1447   -4.1250    0.0000 C   0  0  0  0  0  0  0  0  0  0  0  0
    7.1447   -4.9500    0.0000 C   0  0  0  0  0  0  0  0  0  0  0  0
    6.4302   -5.3625    0.0000 N   0  0  0  0  0  0  0  0  0  0  0  0
    6.4302   -6.1875    0.0000 C   0  0  0  0  0  0  0  0  0  0  0  0
    5.7158   -6.6000    0.0000 C   0  0  0  0  0  0  0  0  0  0  0  0
    5.0013   -6.1875    0.0000 C   0  0  0  0  0  0  0  0  0  0  0  0
    4.2868   -6.6000    0.0000 O   0  0  0  0  0  0  0  0  0  0  0  0
    3.5724   -6.1875    0.0000 C   0  0  0  0  0  0  0  0  0  0  0  0
    2.8579   -6.6000    0.0000 C   0  0  0  0  0  0  0  0  0  0  0  0
    2.1434   -6.1875    0.0000 C   0  0  0  0  0  0  0  0  0  0  0  0
    2.1434   -5.3625    0.0000 C   0  0  0  0  0  0  0  0  0  0  0  0
    1.4289   -4.9500    0.0000 Cl  0  0  0  0  0  0  0  0  0  0  0  0
    2.8579   -4.9500    0.0000 C   0  0  0  0  0  0  0  0  0  0  0  0
    2.8579   -4.1250    0.0000 Cl  0  0  0  0  0  0  0  0  0  0  0  0
    3.5724   -5.3625    0.0000 C   0  0  0  0  0  0  0  0  0  0  0  0
    5.0013   -5.3625    0.0000 C   0  0  0  0  0  0  0  0  0  0  0  0
    5.7158   -4.9500    0.0000 C   0  0  0  0  0  0  0  0  0  0  0  0
    6.4302   -3.7125    0.0000 C   0  0  0  0  0  0  0  0  0  0  0  0
    6.4302   -2.8875    0.0000 C   0  0  0  0  0  0  0  0  0  0  0  0
    6.4302   -1.2375    0.0000 C   0  0  0  0  0  0  0  0  0  0  0  0
    6.4302   -0.4125    0.0000 C   0  0  0  0  0  0  0  0  0  0  0  0
  1  2  2  0  0  0  0
  2  3  1  0  0  0  0
  2  4  1  0  0  0  0
  4  5  2  0  0  0  0
  5  6  1  0  0  0  0
  6  7  2  0  0  0  0
  7  8  1  0  0  0  0
  8  9  1  0  0  0  0
  9 10  1  0  0  0  0
 10 11  1  0  0  0  0
 11 12  1  0  0  0  0
 12 13  1  0  0  0  0
 13 14  1  0  0  0  0
 14 15  1  0  0  0  0
 15 16  1  0  0  0  0
 16 17  1  0  0  0  0
 17 18  1  0  0  0  0
 18 19  2  0  0  0  0
 19 20  1  0  0  0  0
 20 21  2  0  0  0  0
 21 22  1  0  0  0  0
 21 23  1  0  0  0  0
 23 24  1  0  0  0  0
 23 25  2  0  0  0  0
 18 25  1  0  0  0  0
 16 26  1  0  0  0  0
 26 27  1  0  0  0  0
 13 27  1  0  0  0  0
 11 28  1  0  0  0  0
 28 29  1  0  0  0  0
  8 29  1  0  0  0  0
  7 30  1  0  0  0  0
 30 31  2  0  0  0  0
  4 31  1  0  0  0  0
M  END
>  <StandardizerResult>
Tautomerize


>  <CdId>
64

>  <Mol Weight>
463.4

>  <Formula>
C24H28Cl2N2O3

>  <Molecule ChEMBL ID>
CHEMBL2158824

>  <Molecule Max Phase>
0

>  <Molecular Weight>
463.41

>  <#RO5 Violations>
1

>  <AlogP>
5.45

>  <Compound Key>
2852

>  <Standard Type>
pKa_B1

>  <Standard Value>
8.85

>  <Comment>
'B1 Functional Group: 4-Phenoxypiperidine; Ionisation Formula: A1B2 (Functional Group: the part of the molecule the pKa refers to; Ionisation formula: AxBy where 'A' refers to acidic centers within the molecule that are appreciably ionised at a pH <= 11 and 'x' equals 0, 1 or 2; and 'B' refers to basic centers within the molecule that are appreciably ionised at a pH >= 2 and 'y' equals 0, 1, 2 or 3).'

>  <Potential Duplicate>
false

>  <Assay ChEMBL ID>
CHEMBL3301362

>  <Assay Description>
ASTRAZENECA: Most basic pKa value (pKa B1) determined by absorption and potentiometric titration using standard methodology from Sirius Analytical. Experimental range Bases: >= 2.

>  <Assay Type>
P

>  <BAO Format ID>
BAO_0000100

>  <BAO Label>
small-molecule physicochemical format

>  <Target ChEMBL ID>
CHEMBL2362975

>  <Target Name>
No relevant target

>  <Target Type>
NO TARGET

>  <Document ChEMBL ID>
CHEMBL3301361

>  <Source ID>
27

>  <Source Description>
AstraZeneca Deposited Data

>  <Strongest basic pKa>
9.58

>  <deltapKa>
-0.7314875753424843

>  <Strongest basic pKa_Taut>
9.58

>  <deltapKa_TAut>
-0.7314875753424843

$$$$

  Mrv1920 03272013312D          

 28 32  0  0  0  0            999 V2000
    0.8518   -4.1335    0.0000 O   0  0  0  0  0  0  0  0  0  0  0  0
    0.1373   -3.7210    0.0000 C   0  0  0  0  0  0  0  0  0  0  0  0
    0.1373   -2.8960    0.0000 N   0  0  0  0  0  0  0  0  0  0  0  0
    0.8517   -2.4835    0.0000 C   0  0  0  0  0  0  0  0  0  0  0  0
    0.8517   -1.6585    0.0000 C   0  0  0  0  0  0  0  0  0  0  0  0
    0.1163   -2.0322    0.0000 C   0  0  0  0  0  0  0  0  0  0  0  0
    0.5657   -1.2419    0.0000 C   0  0  0  0  0  0  0  0  0  0  0  0
    0.5657   -0.4945    0.0000 C   0  0  0  0  0  0  0  0  0  0  0  0
    1.3012   -0.1208    0.0000 C   0  0  0  0  0  0  0  0  0  0  0  0
    2.0368   -0.4945    0.0000 C   0  0  0  0  0  0  0  0  0  0  0  0
    2.0368   -1.2419    0.0000 C   0  0  0  0  0  0  0  0  0  0  0  0
    1.3012   -1.6156    0.0000 C   0  0  0  0  0  0  0  0  0  0  0  0
    1.5873   -2.0322    0.0000 C   0  0  0  0  0  0  0  0  0  0  0  0
    0.8517   -0.9111    0.0000 C   0  0  0  0  0  0  0  0  0  0  0  0
   -0.5771   -4.1336    0.0000 C   0  0  0  0  0  0  0  0  0  0  0  0
   -0.5771   -4.9586    0.0000 C   0  0  0  0  0  0  0  0  0  0  0  0
   -1.2915   -5.3711    0.0000 C   0  0  0  0  0  0  0  0  0  0  0  0
   -1.2915   -6.1961    0.0000 O   0  0  0  0  0  0  0  0  0  0  0  0
   -2.0059   -6.6087    0.0000 C   0  0  0  0  0  0  0  0  0  0  0  0
   -2.0059   -7.4337    0.0000 C   0  0  0  0  0  0  0  0  0  0  0  0
   -2.7203   -7.8462    0.0000 C   0  0  0  0  0  0  0  0  0  0  0  0
   -3.4348   -7.4337    0.0000 N   0  0  0  0  0  0  0  0  0  0  0  0
   -3.4349   -6.6087    0.0000 C   0  0  0  0  0  0  0  0  0  0  0  0
   -2.7204   -6.1962    0.0000 C   0  0  0  0  0  0  0  0  0  0  0  0
   -2.0060   -4.9587    0.0000 N   0  0  0  0  0  0  0  0  0  0  0  0
   -2.0060   -4.1337    0.0000 C   0  0  0  0  0  0  0  0  0  0  0  0
   -1.2916   -3.7211    0.0000 C   0  0  0  0  0  0  0  0  0  0  0  0
   -1.2916   -2.8961    0.0000 Cl  0  0  0  0  0  0  0  0  0  0  0  0
  1  2  2  0  0  0  0
  2  3  1  0  0  0  0
  3  4  1  0  0  0  0
  4  5  1  0  0  0  0
  5  6  1  0  0  0  0
  6  7  1  0  0  0  0
  9 14  1  0  0  0  0
  8  9  1  0  0  0  0
  9 10  1  0  0  0  0
  5 13  1  0  0  0  0
 11 12  1  0  0  0  0
  7 12  1  0  0  0  0
 11 13  1  0  0  0  0
 10 11  1  0  0  0  0
  7  8  1  0  0  0  0
  5 14  1  0  0  0  0
  2 15  1  0  0  0  0
 15 16  2  0  0  0  0
 16 17  1  0  0  0  0
 17 18  1  0  0  0  0
 18 19  1  0  0  0  0
 19 20  1  0  0  0  0
 20 21  1  0  0  0  0
 21 22  1  0  0  0  0
 22 23  1  0  0  0  0
 23 24  1  0  0  0  0
 19 24  1  0  0  0  0
 17 25  2  0  0  0  0
 25 26  1  0  0  0  0
 26 27  2  0  0  0  0
 15 27  1  0  0  0  0
 27 28  1  0  0  0  0
M  END
>  <StandardizerResult>
Tautomerize


>  <CdId>
181

>  <Mol Weight>
403.95

>  <Formula>
C22H30ClN3O2

>  <Molecule ChEMBL ID>
CHEMBL562690

>  <Molecule Max Phase>
0

>  <Molecular Weight>
403.95

>  <#RO5 Violations>
0

>  <AlogP>
3.81

>  <Compound Key>
1585

>  <Standard Type>
pKa_B1

>  <Standard Value>
9.1

>  <Comment>
'B1 Functional Group: Piperidine; Ionisation Formula: A0B1 (Functional Group: the part of the molecule the pKa refers to; Ionisation formula: AxBy where 'A' refers to acidic centers within the molecule that are appreciably ionised at a pH <= 11 and 'x' equals 0, 1 or 2; and 'B' refers to basic centers within the molecule that are appreciably ionised at a pH >= 2 and 'y' equals 0, 1, 2 or 3).'

>  <Potential Duplicate>
false

>  <Assay ChEMBL ID>
CHEMBL3301362

>  <Assay Description>
ASTRAZENECA: Most basic pKa value (pKa B1) determined by absorption and potentiometric titration using standard methodology from Sirius Analytical. Experimental range Bases: >= 2.

>  <Assay Type>
P

>  <BAO Format ID>
BAO_0000100

>  <BAO Label>
small-molecule physicochemical format

>  <Target ChEMBL ID>
CHEMBL2362975

>  <Target Name>
No relevant target

>  <Target Type>
NO TARGET

>  <Document ChEMBL ID>
CHEMBL3301361

>  <Source ID>
27

>  <Source Description>
AstraZeneca Deposited Data

>  <Strongest basic pKa>
9.82

>  <deltapKa>
-0.7218504116177016

>  <Strongest basic pKa_Taut>
9.82

>  <deltapKa_TAut>
-0.7218504116177016

$$$$

  Mrv1920 03272013312D          

 35 38  0  0  1  0            999 V2000
    7.8592    2.8875    0.0000 N   0  0  0  0  0  0  0  0  0  0  0  0
    7.8592    2.0625    0.0000 C   0  0  0  0  0  0  0  0  0  0  0  0
    7.8592    1.2375    0.0000 C   0  0  0  0  0  0  0  0  0  0  0  0
    8.5737    0.8250    0.0000 C   0  0  0  0  0  0  0  0  0  0  0  0
    8.5737    0.0000    0.0000 C   0  0  0  0  0  0  0  0  0  0  0  0
    7.8592   -0.4125    0.0000 C   0  0  0  0  0  0  0  0  0  0  0  0
    7.8592   -1.2375    0.0000 C   0  0  0  0  0  0  0  0  0  0  0  0
    8.5737   -1.6500    0.0000 C   0  0  1  0  0  0  0  0  0  0  0  0
    9.2881   -1.2375    0.0000 C   0  0  0  0  0  0  0  0  0  0  0  0
   10.0026   -1.6500    0.0000 O   0  0  0  0  0  0  0  0  0  0  0  0
    9.2881   -0.4125    0.0000 O   0  0  0  0  0  0  0  0  0  0  0  0
    8.5737   -2.4750    0.0000 N   0  0  0  0  0  0  0  0  0  0  0  0
    9.2881   -2.8875    0.0000 C   0  0  0  0  0  0  0  0  0  0  0  0
    9.2881   -3.7125    0.0000 C   0  0  0  0  0  0  0  0  0  0  0  0
    8.5737   -4.1250    0.0000 C   0  0  0  0  0  0  0  0  0  0  0  0
    8.5737   -4.9500    0.0000 C   0  0  0  0  0  0  0  0  0  0  0  0
    7.8592   -5.3625    0.0000 N   0  0  0  0  0  0  0  0  0  0  0  0
    7.8592   -6.1875    0.0000 C   0  0  0  0  0  0  0  0  0  0  0  0
    7.1447   -6.6000    0.0000 C   0  0  0  0  0  0  0  0  0  0  0  0
    6.4302   -6.1875    0.0000 C   0  0  0  0  0  0  0  0  0  0  0  0
    5.7158   -6.6000    0.0000 O   0  0  0  0  0  0  0  0  0  0  0  0
    5.0013   -6.1875    0.0000 C   0  0  0  0  0  0  0  0  0  0  0  0
    4.2868   -6.6000    0.0000 C   0  0  0  0  0  0  0  0  0  0  0  0
    3.5724   -6.1875    0.0000 C   0  0  0  0  0  0  0  0  0  0  0  0
    3.5724   -5.3625    0.0000 C   0  0  0  0  0  0  0  0  0  0  0  0
    2.8579   -4.9500    0.0000 Cl  0  0  0  0  0  0  0  0  0  0  0  0
    4.2868   -4.9500    0.0000 C   0  0  0  0  0  0  0  0  0  0  0  0
    4.2868   -4.1250    0.0000 Cl  0  0  0  0  0  0  0  0  0  0  0  0
    5.0013   -5.3625    0.0000 C   0  0  0  0  0  0  0  0  0  0  0  0
    6.4302   -5.3625    0.0000 C   0  0  0  0  0  0  0  0  0  0  0  0
    7.1447   -4.9500    0.0000 C   0  0  0  0  0  0  0  0  0  0  0  0
    7.8592   -3.7125    0.0000 C   0  0  0  0  0  0  0  0  0  0  0  0
    7.8592   -2.8875    0.0000 C   0  0  0  0  0  0  0  0  0  0  0  0
    7.1447    0.0000    0.0000 C   0  0  0  0  0  0  0  0  0  0  0  0
    7.1447    0.8250    0.0000 C   0  0  0  0  0  0  0  0  0  0  0  0
  1  2  3  0  0  0  0
  2  3  1  0  0  0  0
  3  4  2  0  0  0  0
  4  5  1  0  0  0  0
  5  6  2  0  0  0  0
  6  7  1  0  0  0  0
  8  7  1  1  0  0  0
  8  9  1  0  0  0  0
  9 10  2  0  0  0  0
  9 11  1  0  0  0  0
  8 12  1  0  0  0  0
 12 13  1  0  0  0  0
 13 14  1  0  0  0  0
 14 15  1  0  0  0  0
 15 16  1  0  0  0  0
 16 17  1  0  0  0  0
 17 18  1  0  0  0  0
 18 19  1  0  0  0  0
 19 20  1  0  0  0  0
 20 21  1  0  0  0  0
 21 22  1  0  0  0  0
 22 23  2  0  0  0  0
 23 24  1  0  0  0  0
 24 25  2  0  0  0  0
 25 26  1  0  0  0  0
 25 27  1  0  0  0  0
 27 28  1  0  0  0  0
 27 29  2  0  0  0  0
 22 29  1  0  0  0  0
 20 30  1  0  0  0  0
 30 31  1  0  0  0  0
 17 31  1  0  0  0  0
 15 32  1  0  0  0  0
 32 33  1  0  0  0  0
 12 33  1  0  0  0  0
  6 34  1  0  0  0  0
 34 35  2  0  0  0  0
  3 35  1  0  0  0  0
M  END
>  <StandardizerResult>
Tautomerize


>  <CdId>
117

>  <Mol Weight>
516.46

>  <Formula>
C27H31Cl2N3O3

>  <Molecule ChEMBL ID>
CHEMBL2158771

>  <Molecule Max Phase>
0

>  <Molecular Weight>
516.47

>  <#RO5 Violations>
2

>  <AlogP>
5.12

>  <Compound Key>
3159

>  <Standard Type>
pKa_B1

>  <Standard Value>
8.9

>  <Comment>
'B1 Functional Group: 4-Phenoxypiperidine; Ionisation Formula: A1B2 (Functional Group: the part of the molecule the pKa refers to; Ionisation formula: AxBy where 'A' refers to acidic centers within the molecule that are appreciably ionised at a pH <= 11 and 'x' equals 0, 1 or 2; and 'B' refers to basic centers within the molecule that are appreciably ionised at a pH >= 2 and 'y' equals 0, 1, 2 or 3).'

>  <Potential Duplicate>
false

>  <Assay ChEMBL ID>
CHEMBL3301362

>  <Assay Description>
ASTRAZENECA: Most basic pKa value (pKa B1) determined by absorption and potentiometric titration using standard methodology from Sirius Analytical. Experimental range Bases: >= 2.

>  <Assay Type>
P

>  <BAO Format ID>
BAO_0000100

>  <BAO Label>
small-molecule physicochemical format

>  <Target ChEMBL ID>
CHEMBL2362975

>  <Target Name>
No relevant target

>  <Target Type>
NO TARGET

>  <Document ChEMBL ID>
CHEMBL3301361

>  <Source ID>
27

>  <Source Description>
AstraZeneca Deposited Data

>  <Strongest basic pKa>
9.61

>  <deltapKa>
-0.7096586598560339

>  <Strongest basic pKa_Taut>
9.61

>  <deltapKa_TAut>
-0.7096586598560339

$$$$

  Mrv1920 03272013312D          

 25 28  0  0  0  0            999 V2000
   -1.2288   -3.3957    0.0000 N   0  0  0  0  0  0  0  0  0  0  0  0
   -0.8932   -2.6420    0.0000 C   0  0  0  0  0  0  0  0  0  0  0  0
   -1.3057   -1.9275    0.0000 C   0  0  0  0  0  0  0  0  0  0  0  0
   -0.7537   -1.3144    0.0000 C   0  0  0  0  0  0  0  0  0  0  0  0
    0.0000   -1.6500    0.0000 N   0  0  0  0  0  0  0  0  0  0  0  0
    0.7145   -1.2375    0.0000 C   0  0  0  0  0  0  0  0  0  0  0  0
    0.7145   -0.4125    0.0000 C   0  0  0  0  0  0  0  0  0  0  0  0
    0.0000    0.0000    0.0000 F   0  0  0  0  0  0  0  0  0  0  0  0
    1.4289    0.0000    0.0000 C   0  0  0  0  0  0  0  0  0  0  0  0
    2.1434   -0.4125    0.0000 C   0  0  0  0  0  0  0  0  0  0  0  0
    2.8579    0.0000    0.0000 C   0  0  0  0  0  0  0  0  0  0  0  0
    2.8579    0.8250    0.0000 O   0  0  0  0  0  0  0  0  0  0  0  0
    3.5724   -0.4125    0.0000 C   0  0  0  0  0  0  0  0  0  0  0  0
    4.2868    0.0000    0.0000 C   0  0  0  0  0  0  0  0  0  0  0  0
    4.2868    0.8250    0.0000 O   0  0  0  0  0  0  0  0  0  0  0  0
    5.0013   -0.4125    0.0000 O   0  0  0  0  0  0  0  0  0  0  0  0
    3.5724   -1.2375    0.0000 C   0  0  0  0  0  0  0  0  0  0  0  0
    2.8579   -1.6500    0.0000 N   0  0  0  0  0  0  0  0  0  0  0  0
    2.8579   -2.4750    0.0000 C   0  0  0  0  0  0  0  0  0  0  0  0
    3.2704   -3.1895    0.0000 C   0  0  0  0  0  0  0  0  0  0  0  0
    2.4454   -3.1895    0.0000 C   0  0  0  0  0  0  0  0  0  0  0  0
    2.1434   -1.2375    0.0000 C   0  0  0  0  0  0  0  0  0  0  0  0
    1.4289   -1.6500    0.0000 C   0  0  0  0  0  0  0  0  0  0  0  0
    1.4289   -2.4750    0.0000 Cl  0  0  0  0  0  0  0  0  0  0  0  0
   -0.0862   -2.4705    0.0000 C   0  0  0  0  0  0  0  0  0  0  0  0
  1  2  1  0  0  0  0
  2  3  1  0  0  0  0
  3  4  1  0  0  0  0
  4  5  1  0  0  0  0
  5  6  1  0  0  0  0
  6  7  2  0  0  0  0
  7  8  1  0  0  0  0
  7  9  1  0  0  0  0
  9 10  2  0  0  0  0
 10 11  1  0  0  0  0
 11 12  2  0  0  0  0
 11 13  1  0  0  0  0
 13 14  1  0  0  0  0
 14 15  2  0  0  0  0
 14 16  1  0  0  0  0
 13 17  2  0  0  0  0
 17 18  1  0  0  0  0
 18 19  1  0  0  0  0
 19 20  1  0  0  0  0
 20 21  1  0  0  0  0
 19 21  1  0  0  0  0
 18 22  1  0  0  0  0
 10 22  1  0  0  0  0
 22 23  2  0  0  0  0
  6 23  1  0  0  0  0
 23 24  1  0  0  0  0
  5 25  1  0  0  0  0
  2 25  1  0  0  0  0
M  END
>  <StandardizerResult>
Tautomerize


>  <CdId>
163

>  <Mol Weight>
365.79

>  <Formula>
C17H17ClFN3O3

>  <Molecule ChEMBL ID>
CHEMBL278255

>  <Molecule Name>
CLINAFLOXACIN

>  <Molecule Max Phase>
0

>  <Molecular Weight>
365.79

>  <#RO5 Violations>
0

>  <AlogP>
2.36

>  <Compound Key>
4153

>  <Standard Type>
pKa_B1

>  <Standard Value>
9.1

>  <Comment>
'B1 Functional Group: Primary amine; Ionisation Formula: A1B1 (Functional Group: the part of the molecule the pKa refers to; Ionisation formula: AxBy where 'A' refers to acidic centers within the molecule that are appreciably ionised at a pH <= 11 and 'x' equals 0, 1 or 2; and 'B' refers to basic centers within the molecule that are appreciably ionised at a pH >= 2 and 'y' equals 0, 1, 2 or 3).'

>  <Potential Duplicate>
false

>  <Assay ChEMBL ID>
CHEMBL3301362

>  <Assay Description>
ASTRAZENECA: Most basic pKa value (pKa B1) determined by absorption and potentiometric titration using standard methodology from Sirius Analytical. Experimental range Bases: >= 2.

>  <Assay Type>
P

>  <BAO Format ID>
BAO_0000100

>  <BAO Label>
small-molecule physicochemical format

>  <Target ChEMBL ID>
CHEMBL2362975

>  <Target Name>
No relevant target

>  <Target Type>
NO TARGET

>  <Document ChEMBL ID>
CHEMBL3301361

>  <Source ID>
27

>  <Source Description>
AstraZeneca Deposited Data

>  <Strongest basic pKa>
9.8

>  <deltapKa>
-0.7048142298625439

>  <Strongest basic pKa_Taut>
9.8

>  <deltapKa_TAut>
-0.7048142298625439

$$$$

  Mrv1920 03272013312D          

 32 35  0  0  0  0            999 V2000
    7.8592    2.0625    0.0000 O   0  0  0  0  0  0  0  0  0  0  0  0
    7.8592    1.2375    0.0000 C   0  0  0  0  0  0  0  0  0  0  0  0
    8.5737    0.8250    0.0000 O   0  0  0  0  0  0  0  0  0  0  0  0
    7.1447    0.8250    0.0000 C   0  0  0  0  0  0  0  0  0  0  0  0
    7.1447    0.0000    0.0000 C   0  0  0  0  0  0  0  0  0  0  0  0
    7.8592   -0.4125    0.0000 C   0  0  0  0  0  0  0  0  0  0  0  0
    7.8592   -1.2375    0.0000 C   0  0  0  0  0  0  0  0  0  0  0  0
    7.1447   -1.6500    0.0000 C   0  0  0  0  0  0  0  0  0  0  0  0
    6.4302   -1.2375    0.0000 C   0  0  0  0  0  0  0  0  0  0  0  0
    5.7158   -1.6500    0.0000 N   0  0  0  0  0  0  0  0  0  0  0  0
    5.7158   -2.4750    0.0000 C   0  0  0  0  0  0  0  0  0  0  0  0
    5.0013   -2.8875    0.0000 C   0  0  0  0  0  0  0  0  0  0  0  0
    4.2868   -2.4750    0.0000 C   0  0  0  0  0  0  0  0  0  0  0  0
    3.5724   -2.8875    0.0000 C   0  0  0  0  0  0  0  0  0  0  0  0
    2.8579   -2.4750    0.0000 N   0  0  0  0  0  0  0  0  0  0  0  0
    2.1434   -2.8875    0.0000 C   0  0  0  0  0  0  0  0  0  0  0  0
    1.4289   -2.4750    0.0000 C   0  0  0  0  0  0  0  0  0  0  0  0
    1.4289   -1.6500    0.0000 C   0  0  0  0  0  0  0  0  0  0  0  0
    0.7145   -1.2375    0.0000 O   0  0  0  0  0  0  0  0  0  0  0  0
    0.7145   -0.4125    0.0000 C   0  0  0  0  0  0  0  0  0  0  0  0
    0.0000    0.0000    0.0000 C   0  0  0  0  0  0  0  0  0  0  0  0
    0.0000    0.8250    0.0000 C   0  0  0  0  0  0  0  0  0  0  0  0
    0.7145    1.2375    0.0000 C   0  0  0  0  0  0  0  0  0  0  0  0
    0.7145    2.0625    0.0000 Cl  0  0  0  0  0  0  0  0  0  0  0  0
    1.4289    0.8250    0.0000 C   0  0  0  0  0  0  0  0  0  0  0  0
    2.1434    1.2375    0.0000 Cl  0  0  0  0  0  0  0  0  0  0  0  0
    1.4289    0.0000    0.0000 C   0  0  0  0  0  0  0  0  0  0  0  0
    2.1434   -1.2375    0.0000 C   0  0  0  0  0  0  0  0  0  0  0  0
    2.8579   -1.6500    0.0000 C   0  0  0  0  0  0  0  0  0  0  0  0
    4.2868   -1.6500    0.0000 C   0  0  0  0  0  0  0  0  0  0  0  0
    5.0013   -1.2375    0.0000 C   0  0  0  0  0  0  0  0  0  0  0  0
    6.4302   -0.4125    0.0000 C   0  0  0  0  0  0  0  0  0  0  0  0
  1  2  2  0  0  0  0
  2  3  1  0  0  0  0
  2  4  1  0  0  0  0
  4  5  1  0  0  0  0
  5  6  2  0  0  0  0
  6  7  1  0  0  0  0
  7  8  2  0  0  0  0
  8  9  1  0  0  0  0
  9 10  1  0  0  0  0
 10 11  1  0  0  0  0
 11 12  1  0  0  0  0
 12 13  1  0  0  0  0
 13 14  1  0  0  0  0
 14 15  1  0  0  0  0
 15 16  1  0  0  0  0
 16 17  1  0  0  0  0
 17 18  1  0  0  0  0
 18 19  1  0  0  0  0
 19 20  1  0  0  0  0
 20 21  2  0  0  0  0
 21 22  1  0  0  0  0
 22 23  2  0  0  0  0
 23 24  1  0  0  0  0
 23 25  1  0  0  0  0
 25 26  1  0  0  0  0
 25 27  2  0  0  0  0
 20 27  1  0  0  0  0
 18 28  1  0  0  0  0
 28 29  1  0  0  0  0
 15 29  1  0  0  0  0
 13 30  1  0  0  0  0
 30 31  1  0  0  0  0
 10 31  1  0  0  0  0
  9 32  2  0  0  0  0
  5 32  1  0  0  0  0
M  END
>  <StandardizerResult>
Tautomerize


>  <CdId>
55

>  <Mol Weight>
477.43

>  <Formula>
C25H30Cl2N2O3

>  <Molecule ChEMBL ID>
CHEMBL2158826

>  <Molecule Max Phase>
0

>  <Molecular Weight>
477.43

>  <#RO5 Violations>
1

>  <AlogP>
5.38

>  <Compound Key>
3117

>  <Standard Type>
pKa_B1

>  <Standard Value>
8.9

>  <Comment>
'B1 Functional Group: 4-Phenoxypiperidine; Ionisation Formula: A1B2 (Functional Group: the part of the molecule the pKa refers to; Ionisation formula: AxBy where 'A' refers to acidic centers within the molecule that are appreciably ionised at a pH <= 11 and 'x' equals 0, 1 or 2; and 'B' refers to basic centers within the molecule that are appreciably ionised at a pH >= 2 and 'y' equals 0, 1, 2 or 3).'

>  <Potential Duplicate>
false

>  <Assay ChEMBL ID>
CHEMBL3301362

>  <Assay Description>
ASTRAZENECA: Most basic pKa value (pKa B1) determined by absorption and potentiometric titration using standard methodology from Sirius Analytical. Experimental range Bases: >= 2.

>  <Assay Type>
P

>  <BAO Format ID>
BAO_0000100

>  <BAO Label>
small-molecule physicochemical format

>  <Target ChEMBL ID>
CHEMBL2362975

>  <Target Name>
No relevant target

>  <Target Type>
NO TARGET

>  <Document ChEMBL ID>
CHEMBL3301361

>  <Source ID>
27

>  <Source Description>
AstraZeneca Deposited Data

>  <Strongest basic pKa>
9.58

>  <deltapKa>
-0.6766208359363759

>  <Strongest basic pKa_Taut>
9.58

>  <deltapKa_TAut>
-0.6766208359363759

$$$$

  Mrv1920 03272013312D          

 31 34  0  0  0  0            999 V2000
    7.8592    1.2375    0.0000 O   0  0  0  0  0  0  0  0  0  0  0  0
    7.1447    0.8250    0.0000 C   0  0  0  0  0  0  0  0  0  0  0  0
    6.4302    1.2375    0.0000 O   0  0  0  0  0  0  0  0  0  0  0  0
    7.1447    0.0000    0.0000 C   0  0  0  0  0  0  0  0  0  0  0  0
    7.8592   -0.4125    0.0000 C   0  0  0  0  0  0  0  0  0  0  0  0
    7.8592   -1.2375    0.0000 C   0  0  0  0  0  0  0  0  0  0  0  0
    7.1447   -1.6500    0.0000 C   0  0  0  0  0  0  0  0  0  0  0  0
    6.4302   -1.2375    0.0000 C   0  0  0  0  0  0  0  0  0  0  0  0
    6.4302   -0.4125    0.0000 C   0  0  0  0  0  0  0  0  0  0  0  0
    5.7158    0.0000    0.0000 N   0  0  0  0  0  0  0  0  0  0  0  0
    5.0013   -0.4125    0.0000 C   0  0  0  0  0  0  0  0  0  0  0  0
    4.2868    0.0000    0.0000 C   0  0  0  0  0  0  0  0  0  0  0  0
    4.2868    0.8250    0.0000 C   0  0  0  0  0  0  0  0  0  0  0  0
    3.5724    1.2375    0.0000 C   0  0  0  0  0  0  0  0  0  0  0  0
    3.5724    2.0625    0.0000 N   0  0  0  0  0  0  0  0  0  0  0  0
    2.8579    2.4750    0.0000 C   0  0  0  0  0  0  0  0  0  0  0  0
    2.8579    3.3000    0.0000 C   0  0  0  0  0  0  0  0  0  0  0  0
    3.5724    3.7125    0.0000 C   0  0  0  0  0  0  0  0  0  0  0  0
    3.5724    4.5375    0.0000 O   0  0  0  0  0  0  0  0  0  0  0  0
    4.2868    4.9500    0.0000 C   0  0  0  0  0  0  0  0  0  0  0  0
    4.2868    5.7750    0.0000 C   0  0  0  0  0  0  0  0  0  0  0  0
    5.0013    6.1875    0.0000 C   0  0  0  0  0  0  0  0  0  0  0  0
    5.7158    5.7750    0.0000 C   0  0  0  0  0  0  0  0  0  0  0  0
    6.4302    6.1875    0.0000 Cl  0  0  0  0  0  0  0  0  0  0  0  0
    5.7158    4.9500    0.0000 C   0  0  0  0  0  0  0  0  0  0  0  0
    6.4302    4.5375    0.0000 Cl  0  0  0  0  0  0  0  0  0  0  0  0
    5.0013    4.5375    0.0000 C   0  0  0  0  0  0  0  0  0  0  0  0
    4.2868    3.3000    0.0000 C   0  0  0  0  0  0  0  0  0  0  0  0
    4.2868    2.4750    0.0000 C   0  0  0  0  0  0  0  0  0  0  0  0
    5.0013    1.2375    0.0000 C   0  0  0  0  0  0  0  0  0  0  0  0
    5.7158    0.8250    0.0000 C   0  0  0  0  0  0  0  0  0  0  0  0
  1  2  2  0  0  0  0
  2  3  1  0  0  0  0
  2  4  1  0  0  0  0
  4  5  2  0  0  0  0
  5  6  1  0  0  0  0
  6  7  2  0  0  0  0
  7  8  1  0  0  0  0
  8  9  2  0  0  0  0
  4  9  1  0  0  0  0
  9 10  1  0  0  0  0
 10 11  1  0  0  0  0
 11 12  1  0  0  0  0
 12 13  1  0  0  0  0
 13 14  1  0  0  0  0
 14 15  1  0  0  0  0
 15 16  1  0  0  0  0
 16 17  1  0  0  0  0
 17 18  1  0  0  0  0
 18 19  1  0  0  0  0
 19 20  1  0  0  0  0
 20 21  2  0  0  0  0
 21 22  1  0  0  0  0
 22 23  2  0  0  0  0
 23 24  1  0  0  0  0
 23 25  1  0  0  0  0
 25 26  1  0  0  0  0
 25 27  2  0  0  0  0
 20 27  1  0  0  0  0
 18 28  1  0  0  0  0
 28 29  1  0  0  0  0
 15 29  1  0  0  0  0
 13 30  1  0  0  0  0
 30 31  1  0  0  0  0
 10 31  1  0  0  0  0
M  END
>  <StandardizerResult>
Tautomerize


>  <CdId>
8

>  <Mol Weight>
463.4

>  <Formula>
C24H28Cl2N2O3

>  <Molecule ChEMBL ID>
CHEMBL2158822

>  <Molecule Max Phase>
0

>  <Molecular Weight>
463.41

>  <#RO5 Violations>
1

>  <AlogP>
5.45

>  <Compound Key>
2418

>  <Standard Type>
pKa_B1

>  <Standard Value>
8.9

>  <Comment>
'B1 Functional Group: 4-Phenoxypiperidine; Ionisation Formula: A1B2 (Functional Group: the part of the molecule the pKa refers to; Ionisation formula: AxBy where 'A' refers to acidic centers within the molecule that are appreciably ionised at a pH <= 11 and 'x' equals 0, 1 or 2; and 'B' refers to basic centers within the molecule that are appreciably ionised at a pH >= 2 and 'y' equals 0, 1, 2 or 3).'

>  <Potential Duplicate>
false

>  <Assay ChEMBL ID>
CHEMBL3301362

>  <Assay Description>
ASTRAZENECA: Most basic pKa value (pKa B1) determined by absorption and potentiometric titration using standard methodology from Sirius Analytical. Experimental range Bases: >= 2.

>  <Assay Type>
P

>  <BAO Format ID>
BAO_0000100

>  <BAO Label>
small-molecule physicochemical format

>  <Target ChEMBL ID>
CHEMBL2362975

>  <Target Name>
No relevant target

>  <Target Type>
NO TARGET

>  <Document ChEMBL ID>
CHEMBL3301361

>  <Source ID>
27

>  <Source Description>
AstraZeneca Deposited Data

>  <Strongest basic pKa>
9.57

>  <deltapKa>
-0.6716784708994474

>  <Strongest basic pKa_Taut>
9.57

>  <deltapKa_TAut>
-0.6716784708994474

$$$$

  Mrv1920 03272013312D          

 21 23  0  0  0  0            999 V2000
    4.2868    0.0000    0.0000 O   0  0  0  0  0  0  0  0  0  0  0  0
    5.0013   -0.4125    0.0000 C   0  0  0  0  0  0  0  0  0  0  0  0
    5.0013   -1.2375    0.0000 C   0  0  0  0  0  0  0  0  0  0  0  0
    5.7158   -1.6500    0.0000 C   0  0  0  0  0  0  0  0  0  0  0  0
    5.7158   -2.4750    0.0000 C   0  0  0  0  0  0  0  0  0  0  0  0
    5.0013   -2.8875    0.0000 C   0  0  0  0  0  0  0  0  0  0  0  0
    4.2868   -2.4750    0.0000 C   0  0  0  0  0  0  0  0  0  0  0  0
    4.2868   -1.6500    0.0000 C   0  0  0  0  0  0  0  0  0  0  0  0
    5.7158    0.0000    0.0000 N   0  0  0  0  0  0  0  0  0  0  0  0
    5.7158    0.8250    0.0000 C   0  0  0  0  0  0  0  0  0  0  0  0
    6.4302    1.2375    0.0000 C   0  0  0  0  0  0  0  0  0  0  0  0
    7.1447    0.8250    0.0000 N   0  0  0  0  0  0  0  0  0  0  0  0
    7.8592    1.2375    0.0000 C   0  0  0  0  0  0  0  0  0  0  0  0
    8.5737    0.8250    0.0000 C   0  0  0  0  0  0  0  0  0  0  0  0
    9.2881    1.2375    0.0000 C   0  0  0  0  0  0  0  0  0  0  0  0
   10.0026    0.8250    0.0000 C   0  0  0  0  0  0  0  0  0  0  0  0
   10.0026    0.0000    0.0000 C   0  0  0  0  0  0  0  0  0  0  0  0
    9.2881   -0.4125    0.0000 C   0  0  0  0  0  0  0  0  0  0  0  0
    8.5737    0.0000    0.0000 C   0  0  0  0  0  0  0  0  0  0  0  0
    7.1447    0.0000    0.0000 C   0  0  0  0  0  0  0  0  0  0  0  0
    6.4302   -0.4125    0.0000 C   0  0  0  0  0  0  0  0  0  0  0  0
  1  2  2  0  0  0  0
  2  3  1  0  0  0  0
  3  4  2  0  0  0  0
  4  5  1  0  0  0  0
  5  6  2  0  0  0  0
  6  7  1  0  0  0  0
  7  8  2  0  0  0  0
  3  8  1  0  0  0  0
  2  9  1  0  0  0  0
  9 10  1  0  0  0  0
 10 11  1  0  0  0  0
 11 12  1  0  0  0  0
 12 13  1  0  0  0  0
 13 14  1  0  0  0  0
 14 15  2  0  0  0  0
 15 16  1  0  0  0  0
 16 17  2  0  0  0  0
 17 18  1  0  0  0  0
 18 19  2  0  0  0  0
 14 19  1  0  0  0  0
 12 20  1  0  0  0  0
 20 21  1  0  0  0  0
  9 21  1  0  0  0  0
M  END
>  <StandardizerResult>
Tautomerize


>  <CdId>
231

>  <Mol Weight>
280.37

>  <Formula>
C18H20N2O

>  <Molecule ChEMBL ID>
CHEMBL240317

>  <Molecule Max Phase>
0

>  <Molecular Weight>
280.37

>  <#RO5 Violations>
0

>  <AlogP>
2.64

>  <Compound Key>
995

>  <Standard Type>
pKa_B1

>  <Standard Value>
6.2

>  <Comment>
'B1 Functional Group: Piperazine; Ionisation Formula: A0B1 (Functional Group: the part of the molecule the pKa refers to; Ionisation formula: AxBy where 'A' refers to acidic centers within the molecule that are appreciably ionised at a pH <= 11 and 'x' equals 0, 1 or 2; and 'B' refers to basic centers within the molecule that are appreciably ionised at a pH >= 2 and 'y' equals 0, 1, 2 or 3).'

>  <Potential Duplicate>
false

>  <Assay ChEMBL ID>
CHEMBL3301362

>  <Assay Description>
ASTRAZENECA: Most basic pKa value (pKa B1) determined by absorption and potentiometric titration using standard methodology from Sirius Analytical. Experimental range Bases: >= 2.

>  <Assay Type>
P

>  <BAO Format ID>
BAO_0000100

>  <BAO Label>
small-molecule physicochemical format

>  <Target ChEMBL ID>
CHEMBL2362975

>  <Target Name>
No relevant target

>  <Target Type>
NO TARGET

>  <Document ChEMBL ID>
CHEMBL3301361

>  <Source ID>
27

>  <Source Description>
AstraZeneca Deposited Data

>  <Strongest basic pKa>
6.87

>  <deltapKa>
-0.6653819309979578

>  <Strongest basic pKa_Taut>
6.87

>  <deltapKa_TAut>
-0.6653819309979578

$$$$

  Mrv1920 03272013312D          

 33 35  0  0  1  0            999 V2000
    0.7145   -6.1875    0.0000 C   0  0  0  0  0  0  0  0  0  0  0  0
    0.0000   -6.6000    0.0000 C   0  0  0  0  0  0  0  0  0  0  0  0
    0.0000   -7.4250    0.0000 C   0  0  0  0  0  0  0  0  0  0  0  0
   -0.7145   -7.8375    0.0000 C   0  0  0  0  0  0  0  0  0  0  0  0
   -0.7145   -8.6625    0.0000 Cl  0  0  0  0  0  0  0  0  0  0  0  0
   -1.4289   -7.4250    0.0000 C   0  0  0  0  0  0  0  0  0  0  0  0
   -1.4289   -6.6000    0.0000 C   0  0  0  0  0  0  0  0  0  0  0  0
   -0.7145   -6.1875    0.0000 C   0  0  0  0  0  0  0  0  0  0  0  0
   -0.7145   -5.3625    0.0000 O   0  0  0  0  0  0  0  0  0  0  0  0
    0.0000   -4.9500    0.0000 C   0  0  0  0  0  0  0  0  0  0  0  0
    0.0000   -4.1250    0.0000 C   0  0  0  0  0  0  0  0  0  0  0  0
    0.7145   -3.7125    0.0000 C   0  0  0  0  0  0  0  0  0  0  0  0
    1.4289   -4.1250    0.0000 N   0  0  0  0  0  0  0  0  0  0  0  0
    2.1434   -3.7125    0.0000 C   0  0  0  0  0  0  0  0  0  0  0  0
    2.8579   -4.1250    0.0000 C   0  0  2  0  0  0  0  0  0  0  0  0
    2.8579   -4.9500    0.0000 O   0  0  0  0  0  0  0  0  0  0  0  0
    3.5724   -3.7125    0.0000 C   0  0  0  0  0  0  0  0  0  0  0  0
    4.2868   -4.1250    0.0000 N   0  0  0  0  0  0  0  0  0  0  0  0
    5.0013   -3.7125    0.0000 C   0  0  0  0  0  0  0  0  0  0  0  0
    5.0013   -2.8875    0.0000 O   0  0  0  0  0  0  0  0  0  0  0  0
    5.7158   -4.1250    0.0000 C   0  0  0  0  0  0  0  0  0  0  0  0
    6.4302   -3.7125    0.0000 C   0  0  0  0  0  0  0  0  0  0  0  0
    7.1447   -4.1250    0.0000 N   0  0  0  0  0  0  0  0  0  0  0  0
    7.1447   -4.9500    0.0000 C   0  0  0  0  0  0  0  0  0  0  0  0
    7.8592   -5.3625    0.0000 O   0  0  0  0  0  0  0  0  0  0  0  0
    6.4302   -5.3625    0.0000 C   0  0  0  0  0  0  0  0  0  0  0  0
    5.7158   -4.9500    0.0000 C   0  0  0  0  0  0  0  0  0  0  0  0
    5.0013   -5.3625    0.0000 C   0  0  0  0  0  0  0  0  0  0  0  0
    4.2868   -5.7750    0.0000 F   0  0  0  0  0  0  0  0  0  0  0  0
    4.5888   -4.6480    0.0000 F   0  0  0  0  0  0  0  0  0  0  0  0
    5.4138   -6.0770    0.0000 F   0  0  0  0  0  0  0  0  0  0  0  0
    1.4289   -4.9500    0.0000 C   0  0  0  0  0  0  0  0  0  0  0  0
    0.7145   -5.3625    0.0000 C   0  0  0  0  0  0  0  0  0  0  0  0
  1  2  1  0  0  0  0
  2  3  2  0  0  0  0
  3  4  1  0  0  0  0
  4  5  1  0  0  0  0
  4  6  2  0  0  0  0
  6  7  1  0  0  0  0
  7  8  2  0  0  0  0
  2  8  1  0  0  0  0
  8  9  1  0  0  0  0
  9 10  1  0  0  0  0
 10 11  1  0  0  0  0
 11 12  1  0  0  0  0
 12 13  1  0  0  0  0
 13 14  1  0  0  0  0
 15 14  1  0  0  0  0
 15 16  1  1  0  0  0
 15 17  1  0  0  0  0
 17 18  1  0  0  0  0
 18 19  1  0  0  0  0
 19 20  2  0  0  0  0
 19 21  1  0  0  0  0
 21 22  2  0  0  0  0
 22 23  1  0  0  0  0
 23 24  1  0  0  0  0
 24 25  2  0  0  0  0
 24 26  1  0  0  0  0
 26 27  2  0  0  0  0
 21 27  1  0  0  0  0
 27 28  1  0  0  0  0
 28 29  1  0  0  0  0
 28 30  1  0  0  0  0
 28 31  1  0  0  0  0
 13 32  1  0  0  0  0
 32 33  1  0  0  0  0
 10 33  1  0  0  0  0
M  END
>  <StandardizerResult>
Tautomerize


>  <CdId>
252

>  <Mol Weight>
487.9

>  <Formula>
C22H25ClF3N3O4

>  <Molecule ChEMBL ID>
CHEMBL2207663

>  <Molecule Max Phase>
0

>  <Molecular Weight>
487.91

>  <#RO5 Violations>
0

>  <AlogP>
2.99

>  <Compound Key>
2553

>  <Standard Type>
pKa_B1

>  <Standard Value>
7.5

>  <Comment>
'B1 Functional Group: Piperidine; Ionisation Formula: A1B1 (Functional Group: the part of the molecule the pKa refers to; Ionisation formula: AxBy where 'A' refers to acidic centers within the molecule that are appreciably ionised at a pH <= 11 and 'x' equals 0, 1 or 2; and 'B' refers to basic centers within the molecule that are appreciably ionised at a pH >= 2 and 'y' equals 0, 1, 2 or 3).'

>  <Potential Duplicate>
false

>  <Assay ChEMBL ID>
CHEMBL3301362

>  <Assay Description>
ASTRAZENECA: Most basic pKa value (pKa B1) determined by absorption and potentiometric titration using standard methodology from Sirius Analytical. Experimental range Bases: >= 2.

>  <Assay Type>
P

>  <BAO Format ID>
BAO_0000100

>  <BAO Label>
small-molecule physicochemical format

>  <Target ChEMBL ID>
CHEMBL2362975

>  <Target Name>
No relevant target

>  <Target Type>
NO TARGET

>  <Document ChEMBL ID>
CHEMBL3301361

>  <Source ID>
27

>  <Source Description>
AstraZeneca Deposited Data

>  <Strongest basic pKa>
8.16

>  <deltapKa>
-0.6590829181902418

>  <Strongest basic pKa_Taut>
8.16

>  <deltapKa_TAut>
-0.6590829181902418

$$$$

  Mrv1920 03272013312D          

  9  9  0  0  0  0            999 V2000
    0.7145    2.0625    0.0000 C   0  0  0  0  0  0  0  0  0  0  0  0
    0.7145    1.2375    0.0000 C   0  0  0  0  0  0  0  0  0  0  0  0
    1.4289    0.8250    0.0000 C   0  0  0  0  0  0  0  0  0  0  0  0
    1.4289    0.0000    0.0000 C   0  0  0  0  0  0  0  0  0  0  0  0
    2.1434   -0.4125    0.0000 C   0  0  0  0  0  0  0  0  0  0  0  0
    0.7145   -0.4125    0.0000 N   0  0  0  0  0  0  0  0  0  0  0  0
    0.0000    0.0000    0.0000 C   0  0  0  0  0  0  0  0  0  0  0  0
   -0.7145   -0.4125    0.0000 N   0  0  0  0  0  0  0  0  0  0  0  0
    0.0000    0.8250    0.0000 C   0  0  0  0  0  0  0  0  0  0  0  0
  1  2  1  0  0  0  0
  2  3  2  0  0  0  0
  3  4  1  0  0  0  0
  4  5  1  0  0  0  0
  4  6  2  0  0  0  0
  6  7  1  0  0  0  0
  7  8  1  0  0  0  0
  7  9  2  0  0  0  0
  2  9  1  0  0  0  0
M  END
>  <StandardizerResult>
Tautomerize


>  <CdId>
38

>  <Mol Weight>
122.17

>  <Formula>
C7H10N2

>  <Molecule ChEMBL ID>
CHEMBL59925

>  <Molecule Max Phase>
0

>  <Molecular Weight>
122.17

>  <#RO5 Violations>
0

>  <AlogP>
1.28

>  <Compound Key>
100

>  <Standard Type>
pKa_B1

>  <Standard Value>
7.7

>  <Comment>
'B1 Functional Group: 2-Pyridinamine; Ionisation Formula: A0B1 (Functional Group: the part of the molecule the pKa refers to; Ionisation formula: AxBy where 'A' refers to acidic centers within the molecule that are appreciably ionised at a pH <= 11 and 'x' equals 0, 1 or 2; and 'B' refers to basic centers within the molecule that are appreciably ionised at a pH >= 2 and 'y' equals 0, 1, 2 or 3).'

>  <Potential Duplicate>
false

>  <Assay ChEMBL ID>
CHEMBL3301362

>  <Assay Description>
ASTRAZENECA: Most basic pKa value (pKa B1) determined by absorption and potentiometric titration using standard methodology from Sirius Analytical. Experimental range Bases: >= 2.

>  <Assay Type>
P

>  <BAO Format ID>
BAO_0000100

>  <BAO Label>
small-molecule physicochemical format

>  <Target ChEMBL ID>
CHEMBL2362975

>  <Target Name>
No relevant target

>  <Target Type>
NO TARGET

>  <Document ChEMBL ID>
CHEMBL3301361

>  <Source ID>
27

>  <Source Description>
AstraZeneca Deposited Data

>  <Strongest basic pKa>
8.35

>  <deltapKa>
-0.6501099659301763

>  <Strongest basic pKa_Taut>
8.35

>  <deltapKa_TAut>
-0.6501099659301763

$$$$

  Mrv1920 03272013312D          

 34 37  0  0  0  0            999 V2000
   -2.8579   -2.4750    0.0000 O   0  0  0  0  0  0  0  0  0  0  0  0
   -3.5724   -2.8875    0.0000 C   0  0  0  0  0  0  0  0  0  0  0  0
   -4.2868   -2.4750    0.0000 O   0  0  0  0  0  0  0  0  0  0  0  0
   -3.5724   -3.7125    0.0000 C   0  0  0  0  0  0  0  0  0  0  0  0
   -4.2868   -4.1250    0.0000 O   0  0  0  0  0  0  0  0  0  0  0  0
   -4.2868   -4.9500    0.0000 C   0  0  0  0  0  0  0  0  0  0  0  0
   -3.5724   -5.3625    0.0000 C   0  0  0  0  0  0  0  0  0  0  0  0
   -3.5724   -6.1875    0.0000 C   0  0  0  0  0  0  0  0  0  0  0  0
   -4.2868   -6.6000    0.0000 C   0  0  0  0  0  0  0  0  0  0  0  0
   -5.0013   -6.1875    0.0000 C   0  0  0  0  0  0  0  0  0  0  0  0
   -5.7158   -6.6000    0.0000 C   0  0  0  0  0  0  0  0  0  0  0  0
   -5.7158   -7.4250    0.0000 O   0  0  0  0  0  0  0  0  0  0  0  0
   -6.4302   -6.1875    0.0000 N   0  0  0  0  0  0  0  0  0  0  0  0
   -7.1447   -6.6000    0.0000 C   0  0  0  0  0  0  0  0  0  0  0  0
   -7.8592   -6.1875    0.0000 C   0  0  0  0  0  0  0  0  0  0  0  0
   -7.8592   -5.3625    0.0000 C   0  0  0  0  0  0  0  0  0  0  0  0
   -8.5737   -4.9500    0.0000 N   0  0  0  0  0  0  0  0  0  0  0  0
   -9.2881   -5.3625    0.0000 C   0  0  0  0  0  0  0  0  0  0  0  0
  -10.0026   -4.9500    0.0000 C   0  0  0  0  0  0  0  0  0  0  0  0
  -10.0026   -4.1250    0.0000 C   0  0  0  0  0  0  0  0  0  0  0  0
  -10.7171   -3.7125    0.0000 O   0  0  0  0  0  0  0  0  0  0  0  0
  -11.4315   -4.1250    0.0000 C   0  0  0  0  0  0  0  0  0  0  0  0
  -11.4315   -4.9500    0.0000 C   0  0  0  0  0  0  0  0  0  0  0  0
  -12.1460   -5.3625    0.0000 C   0  0  0  0  0  0  0  0  0  0  0  0
  -12.8605   -4.9500    0.0000 C   0  0  0  0  0  0  0  0  0  0  0  0
  -13.5749   -5.3625    0.0000 Cl  0  0  0  0  0  0  0  0  0  0  0  0
  -12.8605   -4.1250    0.0000 C   0  0  0  0  0  0  0  0  0  0  0  0
  -13.5749   -3.7125    0.0000 Cl  0  0  0  0  0  0  0  0  0  0  0  0
  -12.1460   -3.7125    0.0000 C   0  0  0  0  0  0  0  0  0  0  0  0
   -9.2881   -3.7125    0.0000 C   0  0  0  0  0  0  0  0  0  0  0  0
   -8.5737   -4.1250    0.0000 C   0  0  0  0  0  0  0  0  0  0  0  0
   -7.1447   -4.9500    0.0000 C   0  0  0  0  0  0  0  0  0  0  0  0
   -6.4302   -5.3625    0.0000 C   0  0  0  0  0  0  0  0  0  0  0  0
   -5.0013   -5.3625    0.0000 C   0  0  0  0  0  0  0  0  0  0  0  0
  1  2  2  0  0  0  0
  2  3  1  0  0  0  0
  2  4  1  0  0  0  0
  4  5  1  0  0  0  0
  5  6  1  0  0  0  0
  6  7  2  0  0  0  0
  7  8  1  0  0  0  0
  8  9  2  0  0  0  0
  9 10  1  0  0  0  0
 10 11  1  0  0  0  0
 11 12  2  0  0  0  0
 11 13  1  0  0  0  0
 13 14  1  0  0  0  0
 14 15  1  0  0  0  0
 15 16  1  0  0  0  0
 16 17  1  0  0  0  0
 17 18  1  0  0  0  0
 18 19  1  0  0  0  0
 19 20  1  0  0  0  0
 20 21  1  0  0  0  0
 21 22  1  0  0  0  0
 22 23  2  0  0  0  0
 23 24  1  0  0  0  0
 24 25  2  0  0  0  0
 25 26  1  0  0  0  0
 25 27  1  0  0  0  0
 27 28  1  0  0  0  0
 27 29  2  0  0  0  0
 22 29  1  0  0  0  0
 20 30  1  0  0  0  0
 30 31  1  0  0  0  0
 17 31  1  0  0  0  0
 16 32  1  0  0  0  0
 32 33  1  0  0  0  0
 13 33  1  0  0  0  0
 10 34  2  0  0  0  0
  6 34  1  0  0  0  0
M  END
>  <StandardizerResult>
Tautomerize


>  <CdId>
258

>  <Mol Weight>
507.41

>  <Formula>
C25H28Cl2N2O5

>  <Molecule ChEMBL ID>
CHEMBL2171022

>  <Molecule Max Phase>
0

>  <Molecular Weight>
507.41

>  <#RO5 Violations>
1

>  <AlogP>
4.6

>  <Compound Key>
1548

>  <Standard Type>
pKa_B1

>  <Standard Value>
8.2

>  <Comment>
'B1 Functional Group: Piperidine; Ionisation Formula: A1B1 (Functional Group: the part of the molecule the pKa refers to; Ionisation formula: AxBy where 'A' refers to acidic centers within the molecule that are appreciably ionised at a pH <= 11 and 'x' equals 0, 1 or 2; and 'B' refers to basic centers within the molecule that are appreciably ionised at a pH >= 2 and 'y' equals 0, 1, 2 or 3).'

>  <Potential Duplicate>
false

>  <Assay ChEMBL ID>
CHEMBL3301362

>  <Assay Description>
ASTRAZENECA: Most basic pKa value (pKa B1) determined by absorption and potentiometric titration using standard methodology from Sirius Analytical. Experimental range Bases: >= 2.

>  <Assay Type>
P

>  <BAO Format ID>
BAO_0000100

>  <BAO Label>
small-molecule physicochemical format

>  <Target ChEMBL ID>
CHEMBL2362975

>  <Target Name>
No relevant target

>  <Target Type>
NO TARGET

>  <Document ChEMBL ID>
CHEMBL3301361

>  <Source ID>
27

>  <Source Description>
AstraZeneca Deposited Data

>  <Strongest basic pKa>
8.85

>  <deltapKa>
-0.647204372283646

>  <Strongest basic pKa_Taut>
8.85

>  <deltapKa_TAut>
-0.647204372283646

$$$$

  Mrv1920 03272013312D          

 34 37  0  0  0  0            999 V2000
    7.1447   -2.4750    0.0000 O   0  0  0  0  0  0  0  0  0  0  0  0
    7.8592   -2.0625    0.0000 C   0  0  0  0  0  0  0  0  0  0  0  0
    8.5737   -2.4750    0.0000 N   0  0  0  0  0  0  0  0  0  0  0  0
    8.5737   -3.3000    0.0000 S   0  0  0  0  0  0  0  0  0  0  0  0
    9.3987   -3.3000    0.0000 O   0  0  0  0  0  0  0  0  0  0  0  0
    7.7487   -3.3000    0.0000 O   0  0  0  0  0  0  0  0  0  0  0  0
    8.5737   -4.1250    0.0000 C   0  0  0  0  0  0  0  0  0  0  0  0
    9.2881   -4.5375    0.0000 C   0  0  0  0  0  0  0  0  0  0  0  0
    9.2881   -5.3625    0.0000 C   0  0  0  0  0  0  0  0  0  0  0  0
    8.5737   -5.7750    0.0000 C   0  0  0  0  0  0  0  0  0  0  0  0
    8.5737   -6.6000    0.0000 Cl  0  0  0  0  0  0  0  0  0  0  0  0
    7.8592   -5.3625    0.0000 C   0  0  0  0  0  0  0  0  0  0  0  0
    7.8592   -4.5375    0.0000 C   0  0  0  0  0  0  0  0  0  0  0  0
    7.8592   -1.2375    0.0000 N   0  0  0  0  0  0  0  0  0  0  0  0
    7.1447   -0.8250    0.0000 C   0  0  0  0  0  0  0  0  0  0  0  0
    7.1447    0.0000    0.0000 C   0  0  0  0  0  0  0  0  0  0  0  0
    7.8592    0.4125    0.0000 C   0  0  0  0  0  0  0  0  0  0  0  0
    7.8592    1.2375    0.0000 N   0  0  0  0  0  0  0  0  0  0  0  0
    7.1447    1.6500    0.0000 C   0  0  0  0  0  0  0  0  0  0  0  0
    7.1447    2.4750    0.0000 C   0  0  0  0  0  0  0  0  0  0  0  0
    7.8592    2.8875    0.0000 C   0  0  0  0  0  0  0  0  0  0  0  0
    7.8592    3.7125    0.0000 O   0  0  0  0  0  0  0  0  0  0  0  0
    8.5737    4.1250    0.0000 C   0  0  0  0  0  0  0  0  0  0  0  0
    8.5737    4.9500    0.0000 C   0  0  0  0  0  0  0  0  0  0  0  0
    9.2881    5.3625    0.0000 C   0  0  0  0  0  0  0  0  0  0  0  0
   10.0026    4.9500    0.0000 C   0  0  0  0  0  0  0  0  0  0  0  0
   10.7171    5.3625    0.0000 Cl  0  0  0  0  0  0  0  0  0  0  0  0
   10.0026    4.1250    0.0000 C   0  0  0  0  0  0  0  0  0  0  0  0
   10.7171    3.7125    0.0000 Cl  0  0  0  0  0  0  0  0  0  0  0  0
    9.2881    3.7125    0.0000 C   0  0  0  0  0  0  0  0  0  0  0  0
    8.5737    2.4750    0.0000 C   0  0  0  0  0  0  0  0  0  0  0  0
    8.5737    1.6500    0.0000 C   0  0  0  0  0  0  0  0  0  0  0  0
    8.5737    0.0000    0.0000 C   0  0  0  0  0  0  0  0  0  0  0  0
    8.5737   -0.8250    0.0000 C   0  0  0  0  0  0  0  0  0  0  0  0
  1  2  2  0  0  0  0
  2  3  1  0  0  0  0
  3  4  1  0  0  0  0
  4  5  2  0  0  0  0
  4  6  2  0  0  0  0
  4  7  1  0  0  0  0
  7  8  2  0  0  0  0
  8  9  1  0  0  0  0
  9 10  2  0  0  0  0
 10 11  1  0  0  0  0
 10 12  1  0  0  0  0
 12 13  2  0  0  0  0
  7 13  1  0  0  0  0
  2 14  1  0  0  0  0
 14 15  1  0  0  0  0
 15 16  1  0  0  0  0
 16 17  1  0  0  0  0
 17 18  1  0  0  0  0
 18 19  1  0  0  0  0
 19 20  1  0  0  0  0
 20 21  1  0  0  0  0
 21 22  1  0  0  0  0
 22 23  1  0  0  0  0
 23 24  2  0  0  0  0
 24 25  1  0  0  0  0
 25 26  2  0  0  0  0
 26 27  1  0  0  0  0
 26 28  1  0  0  0  0
 28 29  1  0  0  0  0
 28 30  2  0  0  0  0
 23 30  1  0  0  0  0
 21 31  1  0  0  0  0
 31 32  1  0  0  0  0
 18 32  1  0  0  0  0
 17 33  1  0  0  0  0
 33 34  1  0  0  0  0
 14 34  1  0  0  0  0
M  END
>  <StandardizerResult>
Tautomerize


>  <CdId>
99

>  <Mol Weight>
546.89

>  <Formula>
C23H26Cl3N3O4S

>  <Molecule ChEMBL ID>
CHEMBL2171035

>  <Molecule Max Phase>
0

>  <Molecular Weight>
546.9

>  <#RO5 Violations>
2

>  <AlogP>
5.05

>  <Compound Key>
1558

>  <Standard Type>
pKa_B1

>  <Standard Value>
8.2

>  <Comment>
'B1 Functional Group: Piperidine; Ionisation Formula: A1B1 (Functional Group: the part of the molecule the pKa refers to; Ionisation formula: AxBy where 'A' refers to acidic centers within the molecule that are appreciably ionised at a pH <= 11 and 'x' equals 0, 1 or 2; and 'B' refers to basic centers within the molecule that are appreciably ionised at a pH >= 2 and 'y' equals 0, 1, 2 or 3).'

>  <Potential Duplicate>
false

>  <Assay ChEMBL ID>
CHEMBL3301362

>  <Assay Description>
ASTRAZENECA: Most basic pKa value (pKa B1) determined by absorption and potentiometric titration using standard methodology from Sirius Analytical. Experimental range Bases: >= 2.

>  <Assay Type>
P

>  <BAO Format ID>
BAO_0000100

>  <BAO Label>
small-molecule physicochemical format

>  <Target ChEMBL ID>
CHEMBL2362975

>  <Target Name>
No relevant target

>  <Target Type>
NO TARGET

>  <Document ChEMBL ID>
CHEMBL3301361

>  <Source ID>
27

>  <Source Description>
AstraZeneca Deposited Data

>  <Strongest basic pKa>
8.84

>  <deltapKa>
-0.641249893951473

>  <Strongest basic pKa_Taut>
8.84

>  <deltapKa_TAut>
-0.641249893951473

$$$$

  Mrv1920 03272013312D          

 11 11  0  0  0  0            999 V2000
    0.0000    2.4750    0.0000 C   0  0  0  0  0  0  0  0  0  0  0  0
    0.7145    2.0625    0.0000 C   0  0  0  0  0  0  0  0  0  0  0  0
    0.7145    1.2375    0.0000 C   0  0  0  0  0  0  0  0  0  0  0  0
    1.4289    0.8250    0.0000 C   0  0  0  0  0  0  0  0  0  0  0  0
    1.4289    0.0000    0.0000 C   0  0  0  0  0  0  0  0  0  0  0  0
    2.1434   -0.4125    0.0000 C   0  0  0  0  0  0  0  0  0  0  0  0
    2.8579    0.0000    0.0000 N   0  0  0  0  0  0  0  0  0  0  0  0
    2.1434   -1.2375    0.0000 S   0  0  0  0  0  0  0  0  0  0  0  0
    0.7145   -0.4125    0.0000 C   0  0  0  0  0  0  0  0  0  0  0  0
    0.0000    0.0000    0.0000 C   0  0  0  0  0  0  0  0  0  0  0  0
    0.0000    0.8250    0.0000 N   0  0  0  0  0  0  0  0  0  0  0  0
  1  2  1  0  0  0  0
  2  3  1  0  0  0  0
  3  4  2  0  0  0  0
  4  5  1  0  0  0  0
  5  6  1  0  0  0  0
  6  7  1  0  0  0  0
  6  8  2  0  0  0  0
  5  9  2  0  0  0  0
  9 10  1  0  0  0  0
 10 11  2  0  0  0  0
  3 11  1  0  0  0  0
M  END
>  <StandardizerResult>
Tautomerize


>  <CdId>
196

>  <Mol Weight>
166.24

>  <Formula>
C8H10N2S

>  <Molecule ChEMBL ID>
CHEMBL1441

>  <Molecule Name>
ETHIONAMIDE

>  <Molecule Max Phase>
4

>  <Molecular Weight>
166.25

>  <#RO5 Violations>
0

>  <AlogP>
1.28

>  <Compound Key>
1539

>  <Standard Type>
pKa_B1

>  <Standard Value>
4.4

>  <Comment>
'B1 Functional Group: Pyridine; Ionisation Formula: A0B1 (Functional Group: the part of the molecule the pKa refers to; Ionisation formula: AxBy where 'A' refers to acidic centers within the molecule that are appreciably ionised at a pH <= 11 and 'x' equals 0, 1 or 2; and 'B' refers to basic centers within the molecule that are appreciably ionised at a pH >= 2 and 'y' equals 0, 1, 2 or 3).'

>  <Potential Duplicate>
false

>  <Assay ChEMBL ID>
CHEMBL3301362

>  <Assay Description>
ASTRAZENECA: Most basic pKa value (pKa B1) determined by absorption and potentiometric titration using standard methodology from Sirius Analytical. Experimental range Bases: >= 2.

>  <Assay Type>
P

>  <BAO Format ID>
BAO_0000100

>  <BAO Label>
small-molecule physicochemical format

>  <Target ChEMBL ID>
CHEMBL2362975

>  <Target Name>
No relevant target

>  <Target Type>
NO TARGET

>  <Document ChEMBL ID>
CHEMBL3301361

>  <Source ID>
27

>  <Source Description>
AstraZeneca Deposited Data

>  <Strongest basic pKa>
5.0

>  <deltapKa>
-0.6034054133284146

>  <Strongest basic pKa_Taut>
5.0

>  <deltapKa_TAut>
-0.6034054133284146

$$$$

  Mrv1920 03272013312D          

 31 33  0  0  0  0            999 V2000
    1.5126    1.8088    0.0000 C   0  0  0  0  0  0  0  0  0  0  0  0
    0.9606    1.1957    0.0000 O   0  0  0  0  0  0  0  0  0  0  0  0
    0.1536    1.3672    0.0000 N   0  0  0  0  0  0  0  0  0  0  0  0
   -0.1014    2.1518    0.0000 C   0  0  0  0  0  0  0  0  0  0  0  0
   -0.3984    0.7541    0.0000 C   0  0  0  0  0  0  0  0  0  0  0  0
   -1.2054    0.9256    0.0000 O   0  0  0  0  0  0  0  0  0  0  0  0
   -0.1435   -0.0305    0.0000 C   0  0  0  0  0  0  0  0  0  0  0  0
   -0.6284   -0.6979    0.0000 C   0  0  0  0  0  0  0  0  0  0  0  0
   -1.4534   -0.6979    0.0000 C   0  0  0  0  0  0  0  0  0  0  0  0
   -1.8659   -1.4124    0.0000 N   0  0  0  0  0  0  0  0  0  0  0  0
   -1.5304   -2.1661    0.0000 C   0  0  0  0  0  0  0  0  0  0  0  0
   -0.7234   -2.3376    0.0000 C   0  0  0  0  0  0  0  0  0  0  0  0
   -2.1435   -2.7181    0.0000 N   0  0  0  0  0  0  0  0  0  0  0  0
   -2.8579   -2.3056    0.0000 C   0  0  0  0  0  0  0  0  0  0  0  0
   -3.6116   -2.6412    0.0000 Cl  0  0  0  0  0  0  0  0  0  0  0  0
   -2.6864   -1.4986    0.0000 C   0  0  0  0  0  0  0  0  0  0  0  0
   -3.2384   -0.8856    0.0000 Cl  0  0  0  0  0  0  0  0  0  0  0  0
   -0.1435   -1.3654    0.0000 S   0  0  0  0  0  0  0  0  0  0  0  0
    0.6411   -1.1104    0.0000 C   0  0  0  0  0  0  0  0  0  0  0  0
    0.6411   -0.2854    0.0000 C   0  0  0  0  0  0  0  0  0  0  0  0
    1.3556    0.1271    0.0000 C   0  0  0  0  0  0  0  0  0  0  0  0
    1.3556    0.9521    0.0000 O   0  0  0  0  0  0  0  0  0  0  0  0
    2.0701   -0.2854    0.0000 N   0  0  0  0  0  0  0  0  0  0  0  0
    2.7845    0.1271    0.0000 C   0  0  0  0  0  0  0  0  0  0  0  0
    2.0701   -1.1104    0.0000 C   0  0  0  0  0  0  0  0  0  0  0  0
    2.7845   -1.5229    0.0000 O   0  0  0  0  0  0  0  0  0  0  0  0
    1.3556   -1.5229    0.0000 N   0  0  0  0  0  0  0  0  0  0  0  0
    1.3556   -2.3479    0.0000 C   0  0  0  0  0  0  0  0  0  0  0  0
    0.6411   -2.7604    0.0000 C   0  0  0  0  0  0  0  0  0  0  0  0
    0.6411   -3.5854    0.0000 C   0  0  0  0  0  0  0  0  0  0  0  0
   -0.0734   -2.3479    0.0000 C   0  0  0  0  0  0  0  0  0  0  0  0
  1  2  1  0  0  0  0
  2  3  1  0  0  0  0
  3  4  1  0  0  0  0
  3  5  1  0  0  0  0
  5  6  2  0  0  0  0
  5  7  1  0  0  0  0
  7  8  2  0  0  0  0
  8  9  1  0  0  0  0
  9 10  1  0  0  0  0
 10 11  1  0  0  0  0
 11 12  1  0  0  0  0
 11 13  2  0  0  0  0
 13 14  1  0  0  0  0
 14 15  1  0  0  0  0
 14 16  2  0  0  0  0
 10 16  1  0  0  0  0
 16 17  1  0  0  0  0
  8 18  1  0  0  0  0
 18 19  1  0  0  0  0
 19 20  2  0  0  0  0
  7 20  1  0  0  0  0
 20 21  1  0  0  0  0
 21 22  2  0  0  0  0
 21 23  1  0  0  0  0
 23 24  1  0  0  0  0
 23 25  1  0  0  0  0
 25 26  2  0  0  0  0
 25 27  1  0  0  0  0
 19 27  1  0  0  0  0
 27 28  1  0  0  0  0
 28 29  1  0  0  0  0
 29 30  1  0  0  0  0
 29 31  1  0  0  0  0
M  END
>  <StandardizerResult>
Tautomerize


>  <CdId>
111

>  <Mol Weight>
488.38

>  <Formula>
C19H23Cl2N5O4S

>  <Molecule ChEMBL ID>
CHEMBL387125

>  <Molecule Max Phase>
0

>  <Molecular Weight>
488.4

>  <#RO5 Violations>
0

>  <AlogP>
2.91

>  <Compound Key>
2088

>  <Standard Type>
pKa_B1

>  <Standard Value>
2.7

>  <Comment>
'B1 Functional Group: 1H-imidazole, 4,5-dichloro-2-methyl-; Ionisation Formula: A0B1 (Functional Group: the part of the molecule the pKa refers to; Ionisation formula: AxBy where 'A' refers to acidic centers within the molecule that are appreciably ionised at a pH <= 11 and 'x' equals 0, 1 or 2; and 'B' refers to basic centers within the molecule that are appreciably ionised at a pH >= 2 and 'y' equals 0, 1, 2 or 3).'

>  <Potential Duplicate>
false

>  <Assay ChEMBL ID>
CHEMBL3301362

>  <Assay Description>
ASTRAZENECA: Most basic pKa value (pKa B1) determined by absorption and potentiometric titration using standard methodology from Sirius Analytical. Experimental range Bases: >= 2.

>  <Assay Type>
P

>  <BAO Format ID>
BAO_0000100

>  <BAO Label>
small-molecule physicochemical format

>  <Target ChEMBL ID>
CHEMBL2362975

>  <Target Name>
No relevant target

>  <Target Type>
NO TARGET

>  <Document ChEMBL ID>
CHEMBL3301361

>  <Source ID>
27

>  <Source Description>
AstraZeneca Deposited Data

>  <Strongest basic pKa>
3.29

>  <deltapKa>
-0.5933321490519501

>  <Strongest basic pKa_Taut>
3.29

>  <deltapKa_TAut>
-0.5933321490519501

$$$$

  Mrv1920 03272013312D          

 16 17  0  0  0  0            999 V2000
    1.4289   -1.6500    0.0000 C   0  0  0  0  0  0  0  0  0  0  0  0
    1.4289   -2.4750    0.0000 C   0  0  0  0  0  0  0  0  0  0  0  0
    2.1434   -2.8875    0.0000 C   0  0  0  0  0  0  0  0  0  0  0  0
    2.1434   -3.7125    0.0000 C   0  0  0  0  0  0  0  0  0  0  0  0
    1.4289   -4.1250    0.0000 N   0  0  0  0  0  0  0  0  0  0  0  0
    0.7145   -3.7125    0.0000 C   0  0  0  0  0  0  0  0  0  0  0  0
    0.0000   -4.1250    0.0000 N   0  0  0  0  0  0  0  0  0  0  0  0
    0.0000   -4.9500    0.0000 C   0  0  0  0  0  0  0  0  0  0  0  0
   -0.7145   -5.3625    0.0000 C   0  0  0  0  0  0  0  0  0  0  0  0
   -0.7145   -6.1875    0.0000 C   0  0  0  0  0  0  0  0  0  0  0  0
   -1.4289   -6.6000    0.0000 C   0  0  0  0  0  0  0  0  0  0  0  0
   -2.1434   -6.1875    0.0000 C   0  0  0  0  0  0  0  0  0  0  0  0
   -2.1434   -5.3625    0.0000 C   0  0  0  0  0  0  0  0  0  0  0  0
   -1.4289   -4.9500    0.0000 C   0  0  0  0  0  0  0  0  0  0  0  0
   -1.4289   -4.1250    0.0000 O   0  0  0  0  0  0  0  0  0  0  0  0
    0.7145   -2.8875    0.0000 C   0  0  0  0  0  0  0  0  0  0  0  0
  1  2  1  0  0  0  0
  2  3  2  0  0  0  0
  3  4  1  0  0  0  0
  4  5  2  0  0  0  0
  5  6  1  0  0  0  0
  6  7  1  0  0  0  0
  7  8  1  0  0  0  0
  8  9  1  0  0  0  0
  9 10  2  0  0  0  0
 10 11  1  0  0  0  0
 11 12  2  0  0  0  0
 12 13  1  0  0  0  0
 13 14  2  0  0  0  0
  9 14  1  0  0  0  0
 14 15  1  0  0  0  0
  6 16  2  0  0  0  0
  2 16  1  0  0  0  0
M  END
>  <StandardizerResult>
Tautomerize


>  <CdId>
11

>  <Mol Weight>
214.27

>  <Formula>
C13H14N2O

>  <Molecule ChEMBL ID>
CHEMBL1517664

>  <Molecule Max Phase>
0

>  <Molecular Weight>
214.27

>  <#RO5 Violations>
0

>  <AlogP>
2.71

>  <Compound Key>
1045

>  <Standard Type>
pKa_B1

>  <Standard Value>
6.8

>  <Comment>
'B1 Functional Group: 2-Pyridinamine; Ionisation Formula: A1B1 (Functional Group: the part of the molecule the pKa refers to; Ionisation formula: AxBy where 'A' refers to acidic centers within the molecule that are appreciably ionised at a pH <= 11 and 'x' equals 0, 1 or 2; and 'B' refers to basic centers within the molecule that are appreciably ionised at a pH >= 2 and 'y' equals 0, 1, 2 or 3).'

>  <Potential Duplicate>
false

>  <Assay ChEMBL ID>
CHEMBL3301362

>  <Assay Description>
ASTRAZENECA: Most basic pKa value (pKa B1) determined by absorption and potentiometric titration using standard methodology from Sirius Analytical. Experimental range Bases: >= 2.

>  <Assay Type>
P

>  <BAO Format ID>
BAO_0000100

>  <BAO Label>
small-molecule physicochemical format

>  <Target ChEMBL ID>
CHEMBL2362975

>  <Target Name>
No relevant target

>  <Target Type>
NO TARGET

>  <Document ChEMBL ID>
CHEMBL3301361

>  <Source ID>
27

>  <Source Description>
AstraZeneca Deposited Data

>  <Strongest basic pKa>
7.37

>  <deltapKa>
-0.5721131759445388

>  <Strongest basic pKa_Taut>
7.37

>  <deltapKa_TAut>
-0.5721131759445388

$$$$

  Mrv1920 03272013312D          

 18 19  0  0  0  0            999 V2000
    0.7145   -1.2375    0.0000 C   0  0  0  0  0  0  0  0  0  0  0  0
    1.4289   -1.6500    0.0000 O   0  0  0  0  0  0  0  0  0  0  0  0
    1.4289   -2.4750    0.0000 C   0  0  0  0  0  0  0  0  0  0  0  0
    2.1434   -2.8875    0.0000 C   0  0  0  0  0  0  0  0  0  0  0  0
    2.1434   -3.7125    0.0000 C   0  0  0  0  0  0  0  0  0  0  0  0
    1.4289   -4.1250    0.0000 C   0  0  0  0  0  0  0  0  0  0  0  0
    1.4289   -4.9500    0.0000 C   0  0  0  0  0  0  0  0  0  0  0  0
    2.1434   -5.3625    0.0000 N   0  0  0  0  0  0  0  0  0  0  0  0
    2.1434   -6.1875    0.0000 C   0  0  0  0  0  0  0  0  0  0  0  0
    2.8579   -6.6000    0.0000 C   0  0  0  0  0  0  0  0  0  0  0  0
    2.8579   -7.4250    0.0000 C   0  0  0  0  0  0  0  0  0  0  0  0
    3.5724   -7.8375    0.0000 C   0  0  0  0  0  0  0  0  0  0  0  0
    2.1434   -7.8375    0.0000 C   0  0  0  0  0  0  0  0  0  0  0  0
    1.4289   -7.4250    0.0000 C   0  0  0  0  0  0  0  0  0  0  0  0
    1.4289   -6.6000    0.0000 N   0  0  0  0  0  0  0  0  0  0  0  0
    0.7145   -3.7125    0.0000 C   0  0  0  0  0  0  0  0  0  0  0  0
    0.0000   -4.1250    0.0000 O   0  0  0  0  0  0  0  0  0  0  0  0
    0.7145   -2.8875    0.0000 C   0  0  0  0  0  0  0  0  0  0  0  0
  1  2  1  0  0  0  0
  2  3  1  0  0  0  0
  3  4  2  0  0  0  0
  4  5  1  0  0  0  0
  5  6  2  0  0  0  0
  6  7  1  0  0  0  0
  7  8  1  0  0  0  0
  8  9  1  0  0  0  0
  9 10  2  0  0  0  0
 10 11  1  0  0  0  0
 11 12  1  0  0  0  0
 11 13  2  0  0  0  0
 13 14  1  0  0  0  0
 14 15  2  0  0  0  0
  9 15  1  0  0  0  0
  6 16  1  0  0  0  0
 16 17  1  0  0  0  0
 16 18  2  0  0  0  0
  3 18  1  0  0  0  0
M  END
>  <StandardizerResult>
Tautomerize


>  <CdId>
232

>  <Mol Weight>
244.29

>  <Formula>
C14H16N2O2

>  <Molecule ChEMBL ID>
CHEMBL1399563

>  <Molecule Max Phase>
0

>  <Molecular Weight>
244.29

>  <#RO5 Violations>
0

>  <AlogP>
2.72

>  <Compound Key>
312

>  <Standard Type>
pKa_B1

>  <Standard Value>
6.8

>  <Comment>
'B1 Functional Group: 2-Pyridinamine; Ionisation Formula: A1B1 (Functional Group: the part of the molecule the pKa refers to; Ionisation formula: AxBy where 'A' refers to acidic centers within the molecule that are appreciably ionised at a pH <= 11 and 'x' equals 0, 1 or 2; and 'B' refers to basic centers within the molecule that are appreciably ionised at a pH >= 2 and 'y' equals 0, 1, 2 or 3).'

>  <Potential Duplicate>
false

>  <Assay ChEMBL ID>
CHEMBL3301362

>  <Assay Description>
ASTRAZENECA: Most basic pKa value (pKa B1) determined by absorption and potentiometric titration using standard methodology from Sirius Analytical. Experimental range Bases: >= 2.

>  <Assay Type>
P

>  <BAO Format ID>
BAO_0000100

>  <BAO Label>
small-molecule physicochemical format

>  <Target ChEMBL ID>
CHEMBL2362975

>  <Target Name>
No relevant target

>  <Target Type>
NO TARGET

>  <Document ChEMBL ID>
CHEMBL3301361

>  <Source ID>
27

>  <Source Description>
AstraZeneca Deposited Data

>  <Strongest basic pKa>
7.37

>  <deltapKa>
-0.5715296656352828

>  <Strongest basic pKa_Taut>
7.37

>  <deltapKa_TAut>
-0.5715296656352828

$$$$

  Mrv1920 03272013312D          

 21 22  0  0  0  0            999 V2000
    0.4047   -3.9935    0.0000 C   0  0  0  0  0  0  0  0  0  0  0  0
    1.1192   -4.4060    0.0000 C   0  0  0  0  0  0  0  0  0  0  0  0
    1.8337   -3.9935    0.0000 N   0  0  0  0  0  0  0  0  0  0  0  0
    1.8337   -3.1685    0.0000 C   0  0  0  0  0  0  0  0  0  0  0  0
    2.5482   -2.7560    0.0000 C   0  0  0  0  0  0  0  0  0  0  0  0
    2.5482   -4.4060    0.0000 C   0  0  0  0  0  0  0  0  0  0  0  0
    3.2626   -3.9935    0.0000 C   0  0  0  0  0  0  0  0  0  0  0  0
    3.9771   -4.4060    0.0000 O   0  0  0  0  0  0  0  0  0  0  0  0
    4.6916   -3.9935    0.0000 C   0  0  0  0  0  0  0  0  0  0  0  0
    5.4060   -4.4060    0.0000 O   0  0  0  0  0  0  0  0  0  0  0  0
    4.6916   -3.1685    0.0000 C   0  0  0  0  0  0  0  0  0  0  0  0
    5.5120   -3.2547    0.0000 C   0  0  0  0  0  0  0  0  0  0  0  0
    5.9970   -2.5873    0.0000 C   0  0  0  0  0  0  0  0  0  0  0  0
    6.8174   -2.6735    0.0000 C   0  0  0  0  0  0  0  0  0  0  0  0
    7.1530   -3.4272    0.0000 C   0  0  0  0  0  0  0  0  0  0  0  0
    6.6681   -4.0946    0.0000 C   0  0  0  0  0  0  0  0  0  0  0  0
    5.8476   -4.0084    0.0000 C   0  0  0  0  0  0  0  0  0  0  0  0
    3.8711   -3.2547    0.0000 C   0  0  0  0  0  0  0  0  0  0  0  0
    3.5355   -2.5011    0.0000 C   0  0  0  0  0  0  0  0  0  0  0  0
    4.1486   -1.9490    0.0000 C   0  0  0  0  0  0  0  0  0  0  0  0
    4.8631   -2.3615    0.0000 C   0  0  0  0  0  0  0  0  0  0  0  0
  1  2  1  0  0  0  0
  2  3  1  0  0  0  0
  3  4  1  0  0  0  0
  4  5  1  0  0  0  0
  3  6  1  0  0  0  0
  6  7  1  0  0  0  0
  7  8  1  0  0  0  0
  8  9  1  0  0  0  0
  9 10  2  0  0  0  0
  9 11  1  0  0  0  0
 11 12  1  0  0  0  0
 12 13  2  0  0  0  0
 13 14  1  0  0  0  0
 14 15  2  0  0  0  0
 15 16  1  0  0  0  0
 16 17  2  0  0  0  0
 12 17  1  0  0  0  0
 11 18  1  0  0  0  0
 18 19  1  0  0  0  0
 19 20  1  0  0  0  0
 20 21  1  0  0  0  0
 11 21  1  0  0  0  0
M  END
>  <StandardizerResult>
Tautomerize


>  <CdId>
34

>  <Mol Weight>
289.42

>  <Formula>
C18H27NO2

>  <Molecule ChEMBL ID>
CHEMBL61946

>  <Molecule Name>
CARAMIPHEN

>  <Molecule Max Phase>
0

>  <Molecular Weight>
289.42

>  <#RO5 Violations>
0

>  <AlogP>
3.38

>  <Compound Key>
1167

>  <Standard Type>
pKa_B1

>  <Standard Value>
8.4

>  <Comment>
'B1 Functional Group: Tertiary amine; Ionisation Formula: A0B1 (Functional Group: the part of the molecule the pKa refers to; Ionisation formula: AxBy where 'A' refers to acidic centers within the molecule that are appreciably ionised at a pH <= 11 and 'x' equals 0, 1 or 2; and 'B' refers to basic centers within the molecule that are appreciably ionised at a pH >= 2 and 'y' equals 0, 1, 2 or 3).'

>  <Potential Duplicate>
false

>  <Assay ChEMBL ID>
CHEMBL3301362

>  <Assay Description>
ASTRAZENECA: Most basic pKa value (pKa B1) determined by absorption and potentiometric titration using standard methodology from Sirius Analytical. Experimental range Bases: >= 2.

>  <Assay Type>
P

>  <BAO Format ID>
BAO_0000100

>  <BAO Label>
small-molecule physicochemical format

>  <Target ChEMBL ID>
CHEMBL2362975

>  <Target Name>
No relevant target

>  <Target Type>
NO TARGET

>  <Document ChEMBL ID>
CHEMBL3301361

>  <Source ID>
27

>  <Source Description>
AstraZeneca Deposited Data

>  <Strongest basic pKa>
8.96

>  <deltapKa>
-0.5620438295482035

>  <Strongest basic pKa_Taut>
8.96

>  <deltapKa_TAut>
-0.5620438295482035

$$$$

  Mrv1920 03272013312D          

 15 16  0  0  0  0            999 V2000
    0.7145   -0.4125    0.0000 N   0  0  0  0  0  0  0  0  0  0  0  0
    0.7145   -1.2375    0.0000 C   0  0  0  0  0  0  0  0  0  0  0  0
    1.4289   -1.6500    0.0000 N   0  0  0  0  0  0  0  0  0  0  0  0
    1.4289   -2.4750    0.0000 C   0  0  0  0  0  0  0  0  0  0  0  0
    2.1434   -2.8875    0.0000 O   0  0  0  0  0  0  0  0  0  0  0  0
    0.7145   -2.8875    0.0000 C   0  0  0  0  0  0  0  0  0  0  0  0
    0.7145   -3.7125    0.0000 Cl  0  0  0  0  0  0  0  0  0  0  0  0
    0.0000   -2.4750    0.0000 C   0  0  0  0  0  0  0  0  0  0  0  0
   -0.7145   -2.8875    0.0000 C   0  0  0  0  0  0  0  0  0  0  0  0
   -0.7145   -3.7125    0.0000 C   0  0  0  0  0  0  0  0  0  0  0  0
   -1.4289   -4.1250    0.0000 C   0  0  0  0  0  0  0  0  0  0  0  0
   -2.1434   -3.7125    0.0000 C   0  0  0  0  0  0  0  0  0  0  0  0
   -2.1434   -2.8875    0.0000 C   0  0  0  0  0  0  0  0  0  0  0  0
   -1.4289   -2.4750    0.0000 C   0  0  0  0  0  0  0  0  0  0  0  0
    0.0000   -1.6500    0.0000 N   0  0  0  0  0  0  0  0  0  0  0  0
  1  2  1  0  0  0  0
  2  3  2  0  0  0  0
  3  4  1  0  0  0  0
  4  5  2  0  0  0  0
  4  6  1  0  0  0  0
  6  7  1  0  0  0  0
  6  8  2  0  0  0  0
  8  9  1  0  0  0  0
  9 10  2  0  0  0  0
 10 11  1  0  0  0  0
 11 12  2  0  0  0  0
 12 13  1  0  0  0  0
 13 14  2  0  0  0  0
  9 14  1  0  0  0  0
  8 15  1  0  0  0  0
  2 15  1  0  0  0  0
M  END
>  <StandardizerResult>
Tautomerize


>  <CdId>
88

>  <Mol Weight>
221.64

>  <Formula>
C10H8ClN3O

>  <Molecule ChEMBL ID>
CHEMBL301856

>  <Molecule Max Phase>
0

>  <Molecular Weight>
221.65

>  <#RO5 Violations>
0

>  <AlogP>
2.08

>  <Compound Key>
5313

>  <Standard Type>
pKa_B1

>  <Standard Value>
2.35

>  <Comment>
'B1 Functional Group: 5-Chloropyrimidin-4-ol, 2-amino-; Ionisation Formula: A1B1 (Functional Group: the part of the molecule the pKa refers to; Ionisation formula: AxBy where 'A' refers to acidic centers within the molecule that are appreciably ionised at a pH <= 11 and 'x' equals 0, 1 or 2; and 'B' refers to basic centers within the molecule that are appreciably ionised at a pH >= 2 and 'y' equals 0, 1, 2 or 3).'

>  <Potential Duplicate>
false

>  <Assay ChEMBL ID>
CHEMBL3301362

>  <Assay Description>
ASTRAZENECA: Most basic pKa value (pKa B1) determined by absorption and potentiometric titration using standard methodology from Sirius Analytical. Experimental range Bases: >= 2.

>  <Assay Type>
P

>  <BAO Format ID>
BAO_0000100

>  <BAO Label>
small-molecule physicochemical format

>  <Target ChEMBL ID>
CHEMBL2362975

>  <Target Name>
No relevant target

>  <Target Type>
NO TARGET

>  <Document ChEMBL ID>
CHEMBL3301361

>  <Source ID>
27

>  <Source Description>
AstraZeneca Deposited Data

>  <Strongest basic pKa>
1.66

>  <deltapKa>
0.6928548514835728

>  <Strongest basic pKa_Taut>
2.9

>  <deltapKa_TAut>
-0.5505721314741137

$$$$

  Mrv1920 03272013312D          

 18 18  0  0  0  0            999 V2000
   -1.4289    1.6500    0.0000 C   0  0  0  0  0  0  0  0  0  0  0  0
   -0.7145    1.2375    0.0000 O   0  0  0  0  0  0  0  0  0  0  0  0
    0.0000    1.6500    0.0000 C   0  0  0  0  0  0  0  0  0  0  0  0
    0.0000    2.4750    0.0000 C   0  0  0  0  0  0  0  0  0  0  0  0
    0.7145    2.8875    0.0000 C   0  0  0  0  0  0  0  0  0  0  0  0
    1.4289    2.4750    0.0000 C   0  0  0  0  0  0  0  0  0  0  0  0
    2.1434    2.8875    0.0000 O   0  0  0  0  0  0  0  0  0  0  0  0
    2.8579    2.4750    0.0000 C   0  0  0  0  0  0  0  0  0  0  0  0
    1.4289    1.6500    0.0000 C   0  0  0  0  0  0  0  0  0  0  0  0
    2.1434    1.2375    0.0000 C   0  0  0  0  0  0  0  0  0  0  0  0
    2.1434    0.4125    0.0000 O   0  0  0  0  0  0  0  0  0  0  0  0
    2.8579    1.6500    0.0000 C   0  0  0  0  0  0  0  0  0  0  0  0
    3.5724    1.2375    0.0000 N   0  0  0  0  0  0  0  0  0  0  0  0
    4.2868    1.6500    0.0000 C   0  0  0  0  0  0  0  0  0  0  0  0
    4.2868    2.4750    0.0000 O   0  0  0  0  0  0  0  0  0  0  0  0
    5.0013    1.2375    0.0000 C   0  0  0  0  0  0  0  0  0  0  0  0
    5.7158    1.6500    0.0000 N   0  0  0  0  0  0  0  0  0  0  0  0
    0.7145    1.2375    0.0000 C   0  0  0  0  0  0  0  0  0  0  0  0
  1  2  1  0  0  0  0
  2  3  1  0  0  0  0
  3  4  2  0  0  0  0
  4  5  1  0  0  0  0
  5  6  2  0  0  0  0
  6  7  1  0  0  0  0
  7  8  1  0  0  0  0
  6  9  1  0  0  0  0
  9 10  1  0  0  0  0
 10 11  1  0  0  0  0
 10 12  1  0  0  0  0
 12 13  1  0  0  0  0
 13 14  1  0  0  0  0
 14 15  2  0  0  0  0
 14 16  1  0  0  0  0
 16 17  1  0  0  0  0
  9 18  2  0  0  0  0
  3 18  1  0  0  0  0
M  END
>  <StandardizerResult>
Tautomerize


>  <CdId>
36

>  <Mol Weight>
254.29

>  <Formula>
C12H18N2O4

>  <Molecule ChEMBL ID>
CHEMBL1201212

>  <Molecule Name>
MIDODRINE

>  <Molecule Max Phase>
4

>  <Molecular Weight>
254.29

>  <#RO5 Violations>
0

>  <AlogP>
-0.19

>  <Compound Key>
1663

>  <Standard Type>
pKa_B1

>  <Standard Value>
7.59

>  <Comment>
'B1 Functional Group: Primary amine; Ionisation Formula: A0B1 (Functional Group: the part of the molecule the pKa refers to; Ionisation formula: AxBy where 'A' refers to acidic centers within the molecule that are appreciably ionised at a pH <= 11 and 'x' equals 0, 1 or 2; and 'B' refers to basic centers within the molecule that are appreciably ionised at a pH >= 2 and 'y' equals 0, 1, 2 or 3).'

>  <Potential Duplicate>
false

>  <Assay ChEMBL ID>
CHEMBL3301362

>  <Assay Description>
ASTRAZENECA: Most basic pKa value (pKa B1) determined by absorption and potentiometric titration using standard methodology from Sirius Analytical. Experimental range Bases: >= 2.

>  <Assay Type>
P

>  <BAO Format ID>
BAO_0000100

>  <BAO Label>
small-molecule physicochemical format

>  <Target ChEMBL ID>
CHEMBL2362975

>  <Target Name>
No relevant target

>  <Target Type>
NO TARGET

>  <Document ChEMBL ID>
CHEMBL3301361

>  <Source ID>
27

>  <Source Description>
AstraZeneca Deposited Data

>  <Strongest basic pKa>
8.14

>  <deltapKa>
-0.5493132983342335

>  <Strongest basic pKa_Taut>
8.14

>  <deltapKa_TAut>
-0.5493132983342335

$$$$

  Mrv1920 03272013312D          

 35 38  0  0  0  0            999 V2000
    7.8592   -2.8875    0.0000 C   0  0  0  0  0  0  0  0  0  0  0  0
    8.5737   -3.3000    0.0000 O   0  0  0  0  0  0  0  0  0  0  0  0
    8.5737   -4.1250    0.0000 C   0  0  0  0  0  0  0  0  0  0  0  0
    9.2881   -4.5375    0.0000 C   0  0  0  0  0  0  0  0  0  0  0  0
    9.2881   -5.3625    0.0000 C   0  0  0  0  0  0  0  0  0  0  0  0
    8.5737   -5.7750    0.0000 C   0  0  0  0  0  0  0  0  0  0  0  0
    8.5737   -6.6000    0.0000 S   0  0  0  0  0  0  0  0  0  0  0  0
    7.7487   -6.6000    0.0000 O   0  0  0  0  0  0  0  0  0  0  0  0
    9.3987   -6.6000    0.0000 O   0  0  0  0  0  0  0  0  0  0  0  0
    8.5737   -7.4250    0.0000 N   0  0  0  0  0  0  0  0  0  0  0  0
    9.2881   -7.8375    0.0000 C   0  0  0  0  0  0  0  0  0  0  0  0
   10.0026   -7.4250    0.0000 O   0  0  0  0  0  0  0  0  0  0  0  0
    9.2881   -8.6625    0.0000 N   0  0  0  0  0  0  0  0  0  0  0  0
   10.0026   -9.0750    0.0000 C   0  0  0  0  0  0  0  0  0  0  0  0
   10.0026   -9.9000    0.0000 C   0  0  0  0  0  0  0  0  0  0  0  0
    9.2881  -10.3125    0.0000 C   0  0  0  0  0  0  0  0  0  0  0  0
    9.2881  -11.1375    0.0000 N   0  0  0  0  0  0  0  0  0  0  0  0
   10.0026  -11.5500    0.0000 C   0  0  0  0  0  0  0  0  0  0  0  0
   10.0026  -12.3750    0.0000 C   0  0  0  0  0  0  0  0  0  0  0  0
    9.2881  -12.7875    0.0000 C   0  0  0  0  0  0  0  0  0  0  0  0
    9.2881  -13.6125    0.0000 O   0  0  0  0  0  0  0  0  0  0  0  0
    8.5737  -14.0250    0.0000 C   0  0  0  0  0  0  0  0  0  0  0  0
    8.5737  -14.8500    0.0000 C   0  0  0  0  0  0  0  0  0  0  0  0
    7.8592  -15.2625    0.0000 C   0  0  0  0  0  0  0  0  0  0  0  0
    7.1447  -14.8500    0.0000 C   0  0  0  0  0  0  0  0  0  0  0  0
    6.4302  -15.2625    0.0000 Cl  0  0  0  0  0  0  0  0  0  0  0  0
    7.1447  -14.0250    0.0000 C   0  0  0  0  0  0  0  0  0  0  0  0
    6.4302  -13.6125    0.0000 Cl  0  0  0  0  0  0  0  0  0  0  0  0
    7.8592  -13.6125    0.0000 C   0  0  0  0  0  0  0  0  0  0  0  0
    8.5737  -12.3750    0.0000 C   0  0  0  0  0  0  0  0  0  0  0  0
    8.5737  -11.5500    0.0000 C   0  0  0  0  0  0  0  0  0  0  0  0
    8.5737   -9.9000    0.0000 C   0  0  0  0  0  0  0  0  0  0  0  0
    8.5737   -9.0750    0.0000 C   0  0  0  0  0  0  0  0  0  0  0  0
    7.8592   -5.3625    0.0000 C   0  0  0  0  0  0  0  0  0  0  0  0
    7.8592   -4.5375    0.0000 C   0  0  0  0  0  0  0  0  0  0  0  0
  1  2  1  0  0  0  0
  2  3  1  0  0  0  0
  3  4  2  0  0  0  0
  4  5  1  0  0  0  0
  5  6  2  0  0  0  0
  6  7  1  0  0  0  0
  7  8  2  0  0  0  0
  7  9  2  0  0  0  0
  7 10  1  0  0  0  0
 10 11  1  0  0  0  0
 11 12  2  0  0  0  0
 11 13  1  0  0  0  0
 13 14  1  0  0  0  0
 14 15  1  0  0  0  0
 15 16  1  0  0  0  0
 16 17  1  0  0  0  0
 17 18  1  0  0  0  0
 18 19  1  0  0  0  0
 19 20  1  0  0  0  0
 20 21  1  0  0  0  0
 21 22  1  0  0  0  0
 22 23  2  0  0  0  0
 23 24  1  0  0  0  0
 24 25  2  0  0  0  0
 25 26  1  0  0  0  0
 25 27  1  0  0  0  0
 27 28  1  0  0  0  0
 27 29  2  0  0  0  0
 22 29  1  0  0  0  0
 20 30  1  0  0  0  0
 30 31  1  0  0  0  0
 17 31  1  0  0  0  0
 16 32  1  0  0  0  0
 32 33  1  0  0  0  0
 13 33  1  0  0  0  0
  6 34  1  0  0  0  0
 34 35  2  0  0  0  0
  3 35  1  0  0  0  0
M  END
>  <StandardizerResult>
Tautomerize


>  <CdId>
100

>  <Mol Weight>
542.47

>  <Formula>
C24H29Cl2N3O5S

>  <Molecule ChEMBL ID>
CHEMBL2171036

>  <Molecule Max Phase>
0

>  <Molecular Weight>
542.49

>  <#RO5 Violations>
1

>  <AlogP>
4.41

>  <Compound Key>
2141

>  <Standard Type>
pKa_B1

>  <Standard Value>
8.3

>  <Comment>
'B1 Functional Group: Piperidine; Ionisation Formula: A1B1 (Functional Group: the part of the molecule the pKa refers to; Ionisation formula: AxBy where 'A' refers to acidic centers within the molecule that are appreciably ionised at a pH <= 11 and 'x' equals 0, 1 or 2; and 'B' refers to basic centers within the molecule that are appreciably ionised at a pH >= 2 and 'y' equals 0, 1, 2 or 3).'

>  <Potential Duplicate>
false

>  <Assay ChEMBL ID>
CHEMBL3301362

>  <Assay Description>
ASTRAZENECA: Most basic pKa value (pKa B1) determined by absorption and potentiometric titration using standard methodology from Sirius Analytical. Experimental range Bases: >= 2.

>  <Assay Type>
P

>  <BAO Format ID>
BAO_0000100

>  <BAO Label>
small-molecule physicochemical format

>  <Target ChEMBL ID>
CHEMBL2362975

>  <Target Name>
No relevant target

>  <Target Type>
NO TARGET

>  <Document ChEMBL ID>
CHEMBL3301361

>  <Source ID>
27

>  <Source Description>
AstraZeneca Deposited Data

>  <Strongest basic pKa>
8.84

>  <deltapKa>
-0.5412607131813729

>  <Strongest basic pKa_Taut>
8.84

>  <deltapKa_TAut>
-0.5412607131813729

$$$$

  Mrv1920 03272013312D          

 14 15  0  0  0  0            999 V2000
    0.7145   -0.4125    0.0000 N   0  0  0  0  0  0  0  0  0  0  0  0
    0.7145   -1.2375    0.0000 C   0  0  0  0  0  0  0  0  0  0  0  0
    1.4289   -1.6500    0.0000 N   0  0  0  0  0  0  0  0  0  0  0  0
    1.4289   -2.4750    0.0000 C   0  0  0  0  0  0  0  0  0  0  0  0
    2.1434   -2.8875    0.0000 O   0  0  0  0  0  0  0  0  0  0  0  0
    0.7145   -2.8875    0.0000 C   0  0  0  0  0  0  0  0  0  0  0  0
    0.0000   -2.4750    0.0000 C   0  0  0  0  0  0  0  0  0  0  0  0
   -0.7145   -2.8875    0.0000 C   0  0  0  0  0  0  0  0  0  0  0  0
   -0.7145   -3.7125    0.0000 C   0  0  0  0  0  0  0  0  0  0  0  0
   -1.4289   -4.1250    0.0000 C   0  0  0  0  0  0  0  0  0  0  0  0
   -2.1434   -3.7125    0.0000 C   0  0  0  0  0  0  0  0  0  0  0  0
   -2.1434   -2.8875    0.0000 C   0  0  0  0  0  0  0  0  0  0  0  0
   -1.4289   -2.4750    0.0000 C   0  0  0  0  0  0  0  0  0  0  0  0
    0.0000   -1.6500    0.0000 N   0  0  0  0  0  0  0  0  0  0  0  0
  1  2  1  0  0  0  0
  2  3  2  0  0  0  0
  3  4  1  0  0  0  0
  4  5  2  0  0  0  0
  4  6  1  0  0  0  0
  6  7  2  0  0  0  0
  7  8  1  0  0  0  0
  8  9  2  0  0  0  0
  9 10  1  0  0  0  0
 10 11  2  0  0  0  0
 11 12  1  0  0  0  0
 12 13  2  0  0  0  0
  8 13  1  0  0  0  0
  7 14  1  0  0  0  0
  2 14  1  0  0  0  0
M  END
>  <StandardizerResult>
Tautomerize


>  <CdId>
149

>  <Mol Weight>
187.2

>  <Formula>
C10H9N3O

>  <Molecule ChEMBL ID>
CHEMBL288959

>  <Molecule Max Phase>
0

>  <Molecular Weight>
187.2

>  <#RO5 Violations>
0

>  <AlogP>
1.43

>  <Compound Key>
30

>  <Standard Type>
pKa_B1

>  <Standard Value>
3.45

>  <Comment>
'B1 Functional Group: 2-Aminopyrimidin-4-ol; Ionisation Formula: A1B1 (Functional Group: the part of the molecule the pKa refers to; Ionisation formula: AxBy where 'A' refers to acidic centers within the molecule that are appreciably ionised at a pH <= 11 and 'x' equals 0, 1 or 2; and 'B' refers to basic centers within the molecule that are appreciably ionised at a pH >= 2 and 'y' equals 0, 1, 2 or 3).'

>  <Potential Duplicate>
false

>  <Assay ChEMBL ID>
CHEMBL3301362

>  <Assay Description>
ASTRAZENECA: Most basic pKa value (pKa B1) determined by absorption and potentiometric titration using standard methodology from Sirius Analytical. Experimental range Bases: >= 2.

>  <Assay Type>
P

>  <BAO Format ID>
BAO_0000100

>  <BAO Label>
small-molecule physicochemical format

>  <Target ChEMBL ID>
CHEMBL2362975

>  <Target Name>
No relevant target

>  <Target Type>
NO TARGET

>  <Document ChEMBL ID>
CHEMBL3301361

>  <Source ID>
27

>  <Source Description>
AstraZeneca Deposited Data

>  <Strongest basic pKa>
2.7

>  <deltapKa>
0.75014432293422

>  <Strongest basic pKa_Taut>
3.98

>  <deltapKa_TAut>
-0.5256557648052764

$$$$

  Mrv1920 03272013312D          

 11 11  0  0  0  0            999 V2000
   -0.7145    3.7125    0.0000 O   0  0  0  0  0  0  0  0  0  0  0  0
    0.0000    3.3000    0.0000 C   0  0  0  0  0  0  0  0  0  0  0  0
    0.7145    3.7125    0.0000 O   0  0  0  0  0  0  0  0  0  0  0  0
    0.0000    2.4750    0.0000 C   0  0  0  0  0  0  0  0  0  0  0  0
    0.7145    2.0625    0.0000 C   0  0  0  0  0  0  0  0  0  0  0  0
    0.7145    1.2375    0.0000 C   0  0  0  0  0  0  0  0  0  0  0  0
    1.4289    0.8250    0.0000 C   0  0  0  0  0  0  0  0  0  0  0  0
    1.4289    0.0000    0.0000 C   0  0  0  0  0  0  0  0  0  0  0  0
    0.7145   -0.4125    0.0000 C   0  0  0  0  0  0  0  0  0  0  0  0
    0.0000    0.0000    0.0000 N   0  0  0  0  0  0  0  0  0  0  0  0
    0.0000    0.8250    0.0000 C   0  0  0  0  0  0  0  0  0  0  0  0
  1  2  2  0  0  0  0
  2  3  1  0  0  0  0
  2  4  1  0  0  0  0
  4  5  2  0  0  0  0
  5  6  1  0  0  0  0
  6  7  2  0  0  0  0
  7  8  1  0  0  0  0
  8  9  2  0  0  0  0
  9 10  1  0  0  0  0
 10 11  2  0  0  0  0
  6 11  1  0  0  0  0
M  END
>  <StandardizerResult>
Tautomerize


>  <CdId>
19

>  <Mol Weight>
149.15

>  <Formula>
C8H7NO2

>  <Molecule ChEMBL ID>
CHEMBL1771759

>  <Molecule Max Phase>
0

>  <Molecular Weight>
149.15

>  <#RO5 Violations>
0

>  <AlogP>
1.18

>  <Compound Key>
1220

>  <Standard Type>
pKa_B1

>  <Standard Value>
4.4

>  <Comment>
'B1 Functional Group: Pyridine; Ionisation Formula: A1B1 (Functional Group: the part of the molecule the pKa refers to; Ionisation formula: AxBy where 'A' refers to acidic centers within the molecule that are appreciably ionised at a pH <= 11 and 'x' equals 0, 1 or 2; and 'B' refers to basic centers within the molecule that are appreciably ionised at a pH >= 2 and 'y' equals 0, 1, 2 or 3).'

>  <Potential Duplicate>
false

>  <Assay ChEMBL ID>
CHEMBL3301362

>  <Assay Description>
ASTRAZENECA: Most basic pKa value (pKa B1) determined by absorption and potentiometric titration using standard methodology from Sirius Analytical. Experimental range Bases: >= 2.

>  <Assay Type>
P

>  <BAO Format ID>
BAO_0000100

>  <BAO Label>
small-molecule physicochemical format

>  <Target ChEMBL ID>
CHEMBL2362975

>  <Target Name>
No relevant target

>  <Target Type>
NO TARGET

>  <Document ChEMBL ID>
CHEMBL3301361

>  <Source ID>
27

>  <Source Description>
AstraZeneca Deposited Data

>  <Strongest basic pKa>
4.92

>  <deltapKa>
-0.5206568583260696

>  <Strongest basic pKa_Taut>
4.92

>  <deltapKa_TAut>
-0.5206568583260696

$$$$

  Mrv1920 03272013312D          

 12 12  0  0  0  0            999 V2000
    0.5678    1.9393    0.0000 C   0  0  0  0  0  0  0  0  0  0  0  0
    0.5678    1.1143    0.0000 C   0  0  0  0  0  0  0  0  0  0  0  0
    1.2352    0.6294    0.0000 N   0  0  0  0  0  0  0  0  0  0  0  0
    0.9803   -0.1553    0.0000 C   0  0  0  0  0  0  0  0  0  0  0  0
    0.1553   -0.1553    0.0000 C   0  0  0  0  0  0  0  0  0  0  0  0
   -0.3297   -0.8227    0.0000 N   0  3  0  0  0  0  0  0  0  0  0  0
    0.0059   -1.5764    0.0000 O   0  0  0  0  0  0  0  0  0  0  0  0
   -1.1501   -0.7365    0.0000 O   0  5  0  0  0  0  0  0  0  0  0  0
   -0.0997    0.6294    0.0000 N   0  0  0  0  0  0  0  0  0  0  0  0
   -0.8843    0.8843    0.0000 C   0  0  0  0  0  0  0  0  0  0  0  0
   -1.0558    1.6913    0.0000 C   0  0  0  0  0  0  0  0  0  0  0  0
   -1.8405    1.9462    0.0000 O   0  0  0  0  0  0  0  0  0  0  0  0
  1  2  1  0  0  0  0
  2  3  2  0  0  0  0
  3  4  1  0  0  0  0
  4  5  2  0  0  0  0
  5  6  1  0  0  0  0
  6  7  2  0  0  0  0
  6  8  1  0  0  0  0
  5  9  1  0  0  0  0
  2  9  1  0  0  0  0
  9 10  1  0  0  0  0
 10 11  1  0  0  0  0
 11 12  1  0  0  0  0
M  CHG  2   6   1   8  -1
M  END
>  <StandardizerResult>
Tautomerize


>  <CdId>
152

>  <Mol Weight>
171.16

>  <Formula>
C6H9N3O3

>  <Molecule ChEMBL ID>
CHEMBL137

>  <Molecule Name>
METRONIDAZOLE

>  <Molecule Max Phase>
4

>  <Molecular Weight>
171.16

>  <#RO5 Violations>
0

>  <AlogP>
0.09

>  <Compound Key>
METRONIDAZOLE

>  <Standard Type>
pKa_B1

>  <Standard Value>
2.51

>  <Comment>
'B1 Functional Group: 1H-imidazole, 2-methyl-4-nitro-; Ionisation Formula: A0B1 (Functional Group: the part of the molecule the pKa refers to; Ionisation formula: AxBy where 'A' refers to acidic centers within the molecule that are appreciably ionised at a pH <= 11 and 'x' equals 0, 1 or 2; and 'B' refers to basic centers within the molecule that are appreciably ionised at a pH >= 2 and 'y' equals 0, 1, 2 or 3).'

>  <Potential Duplicate>
false

>  <Assay ChEMBL ID>
CHEMBL3301362

>  <Assay Description>
ASTRAZENECA: Most basic pKa value (pKa B1) determined by absorption and potentiometric titration using standard methodology from Sirius Analytical. Experimental range Bases: >= 2.

>  <Assay Type>
P

>  <BAO Format ID>
BAO_0000100

>  <BAO Label>
small-molecule physicochemical format

>  <Target ChEMBL ID>
CHEMBL2362975

>  <Target Name>
No relevant target

>  <Target Type>
NO TARGET

>  <Document ChEMBL ID>
CHEMBL3301361

>  <Source ID>
27

>  <Source Description>
AstraZeneca Deposited Data

>  <Strongest basic pKa>
3.03

>  <deltapKa>
-0.5166053594601894

>  <Strongest basic pKa_Taut>
3.03

>  <deltapKa_TAut>
-0.5166053594601894

$$$$

  Mrv1920 03272013312D          

 32 35  0  0  1  0            999 V2000
   -0.7234   -2.3376    0.0000 C   0  0  0  0  0  0  0  0  0  0  0  0
   -1.5304   -2.1661    0.0000 C   0  0  0  0  0  0  0  0  0  0  0  0
   -2.1435   -2.7181    0.0000 N   0  0  0  0  0  0  0  0  0  0  0  0
   -2.8579   -2.3056    0.0000 N   0  0  0  0  0  0  0  0  0  0  0  0
   -2.6864   -1.4986    0.0000 C   0  0  0  0  0  0  0  0  0  0  0  0
   -3.2384   -0.8856    0.0000 C   0  0  0  0  0  0  0  0  0  0  0  0
   -1.8659   -1.4124    0.0000 C   0  0  0  0  0  0  0  0  0  0  0  0
   -1.4534   -0.6979    0.0000 C   0  0  0  0  0  0  0  0  0  0  0  0
   -0.6284   -0.6979    0.0000 C   0  0  0  0  0  0  0  0  0  0  0  0
   -0.1435   -1.3654    0.0000 S   0  0  0  0  0  0  0  0  0  0  0  0
    0.6411   -1.1104    0.0000 C   0  0  0  0  0  0  0  0  0  0  0  0
    0.6411   -0.2854    0.0000 C   0  0  0  0  0  0  0  0  0  0  0  0
   -0.1435   -0.0305    0.0000 C   0  0  0  0  0  0  0  0  0  0  0  0
   -0.3984    0.7541    0.0000 C   0  0  0  0  0  0  0  0  0  0  0  0
    0.1536    1.3672    0.0000 O   0  0  0  0  0  0  0  0  0  0  0  0
   -1.2054    0.9256    0.0000 N   0  0  0  0  0  0  0  0  0  0  0  0
   -1.8185    0.3736    0.0000 C   0  0  0  0  0  0  0  0  0  0  0  0
   -2.5330    0.7861    0.0000 C   0  0  2  0  0  0  0  0  0  0  0  0
   -3.2867    0.4506    0.0000 O   0  0  0  0  0  0  0  0  0  0  0  0
   -2.3615    1.5931    0.0000 C   0  0  0  0  0  0  0  0  0  0  0  0
   -1.5410    1.6793    0.0000 O   0  0  0  0  0  0  0  0  0  0  0  0
    1.3556    0.1271    0.0000 C   0  0  0  0  0  0  0  0  0  0  0  0
    1.3556    0.9521    0.0000 O   0  0  0  0  0  0  0  0  0  0  0  0
    2.0701   -0.2854    0.0000 N   0  0  0  0  0  0  0  0  0  0  0  0
    2.7845    0.1271    0.0000 C   0  0  0  0  0  0  0  0  0  0  0  0
    2.0701   -1.1104    0.0000 C   0  0  0  0  0  0  0  0  0  0  0  0
    2.7845   -1.5229    0.0000 O   0  0  0  0  0  0  0  0  0  0  0  0
    1.3556   -1.5229    0.0000 N   0  0  0  0  0  0  0  0  0  0  0  0
    1.3556   -2.3479    0.0000 C   0  0  0  0  0  0  0  0  0  0  0  0
    0.6411   -2.7604    0.0000 C   0  0  0  0  0  0  0  0  0  0  0  0
    0.6411   -3.5854    0.0000 C   0  0  0  0  0  0  0  0  0  0  0  0
   -0.0734   -2.3479    0.0000 C   0  0  0  0  0  0  0  0  0  0  0  0
  1  2  1  0  0  0  0
  2  3  2  0  0  0  0
  3  4  1  0  0  0  0
  4  5  1  0  0  0  0
  5  6  1  0  0  0  0
  5  7  2  0  0  0  0
  2  7  1  0  0  0  0
  7  8  1  0  0  0  0
  8  9  1  0  0  0  0
  9 10  1  0  0  0  0
 10 11  1  0  0  0  0
 11 12  2  0  0  0  0
 12 13  1  0  0  0  0
  9 13  2  0  0  0  0
 13 14  1  0  0  0  0
 14 15  2  0  0  0  0
 14 16  1  0  0  0  0
 16 17  1  0  0  0  0
 18 17  1  0  0  0  0
 18 19  1  6  0  0  0
 18 20  1  0  0  0  0
 20 21  1  0  0  0  0
 16 21  1  0  0  0  0
 12 22  1  0  0  0  0
 22 23  2  0  0  0  0
 22 24  1  0  0  0  0
 24 25  1  0  0  0  0
 24 26  1  0  0  0  0
 26 27  2  0  0  0  0
 26 28  1  0  0  0  0
 11 28  1  0  0  0  0
 28 29  1  0  0  0  0
 29 30  1  0  0  0  0
 30 31  1  0  0  0  0
 30 32  1  0  0  0  0
M  END
>  <StandardizerResult>
Tautomerize


>  <CdId>
1

>  <Mol Weight>
461.54

>  <Formula>
C21H27N5O5S

>  <Molecule ChEMBL ID>
CHEMBL375166

>  <Molecule Max Phase>
0

>  <Molecular Weight>
461.54

>  <#RO5 Violations>
0

>  <AlogP>
1.1

>  <Compound Key>
1924

>  <Standard Type>
pKa_B1

>  <Standard Value>
3.4

>  <Comment>
'B1 Functional Group: 1H-pyrazole, 3,5-dimethyl-; Ionisation Formula: A0B1 (Functional Group: the part of the molecule the pKa refers to; Ionisation formula: AxBy where 'A' refers to acidic centers within the molecule that are appreciably ionised at a pH <= 11 and 'x' equals 0, 1 or 2; and 'B' refers to basic centers within the molecule that are appreciably ionised at a pH >= 2 and 'y' equals 0, 1, 2 or 3).'

>  <Potential Duplicate>
false

>  <Assay ChEMBL ID>
CHEMBL3301362

>  <Assay Description>
ASTRAZENECA: Most basic pKa value (pKa B1) determined by absorption and potentiometric titration using standard methodology from Sirius Analytical. Experimental range Bases: >= 2.

>  <Assay Type>
P

>  <BAO Format ID>
BAO_0000100

>  <BAO Label>
small-molecule physicochemical format

>  <Target ChEMBL ID>
CHEMBL2362975

>  <Target Name>
No relevant target

>  <Target Type>
NO TARGET

>  <Document ChEMBL ID>
CHEMBL3301361

>  <Source ID>
27

>  <Source Description>
AstraZeneca Deposited Data

>  <Strongest basic pKa>
3.89

>  <deltapKa>
-0.4935345939428313

>  <Strongest basic pKa_Taut>
3.89

>  <deltapKa_TAut>
-0.4935345939428313

$$$$

  Mrv1920 03272013312D          

 31 34  0  0  0  0            999 V2000
    0.0000    0.8250    0.0000 C   0  0  0  0  0  0  0  0  0  0  0  0
    0.0000    0.0000    0.0000 C   0  0  0  0  0  0  0  0  0  0  0  0
    0.7145   -0.4125    0.0000 C   0  0  0  0  0  0  0  0  0  0  0  0
    1.4289    0.0000    0.0000 N   0  0  0  0  0  0  0  0  0  0  0  0
    2.1434   -0.4125    0.0000 C   0  0  0  0  0  0  0  0  0  0  0  0
    2.8579    0.0000    0.0000 C   0  0  0  0  0  0  0  0  0  0  0  0
    3.5724   -0.4125    0.0000 C   0  0  0  0  0  0  0  0  0  0  0  0
    4.2868    0.0000    0.0000 O   0  0  0  0  0  0  0  0  0  0  0  0
    3.5724   -1.2375    0.0000 C   0  0  0  0  0  0  0  0  0  0  0  0
    2.8579   -1.6500    0.0000 C   0  0  0  0  0  0  0  0  0  0  0  0
    2.1434   -1.2375    0.0000 C   0  0  0  0  0  0  0  0  0  0  0  0
    1.4289   -1.6500    0.0000 C   0  0  0  0  0  0  0  0  0  0  0  0
    1.4289   -2.4750    0.0000 O   0  0  0  0  0  0  0  0  0  0  0  0
    2.1434   -2.8875    0.0000 C   0  0  0  0  0  0  0  0  0  0  0  0
    2.8579   -2.4750    0.0000 C   0  0  0  0  0  0  0  0  0  0  0  0
    3.5724   -2.8875    0.0000 C   0  0  0  0  0  0  0  0  0  0  0  0
    3.5724   -3.7125    0.0000 C   0  0  0  0  0  0  0  0  0  0  0  0
    4.2868   -4.1250    0.0000 C   0  0  0  0  0  0  0  0  0  0  0  0
    4.2868   -4.9500    0.0000 C   0  0  0  0  0  0  0  0  0  0  0  0
    5.0013   -5.3625    0.0000 C   0  0  0  0  0  0  0  0  0  0  0  0
    5.7158   -4.9500    0.0000 O   0  0  0  0  0  0  0  0  0  0  0  0
    5.0013   -6.1875    0.0000 O   0  0  0  0  0  0  0  0  0  0  0  0
    2.8579   -4.1250    0.0000 C   0  0  0  0  0  0  0  0  0  0  0  0
    2.1434   -3.7125    0.0000 C   0  0  0  0  0  0  0  0  0  0  0  0
    0.7145   -1.2375    0.0000 C   0  0  0  0  0  0  0  0  0  0  0  0
    0.0000   -1.6500    0.0000 C   0  0  0  0  0  0  0  0  0  0  0  0
    0.0000   -2.4750    0.0000 C   0  0  0  0  0  0  0  0  0  0  0  0
   -0.7145   -2.8875    0.0000 C   0  0  0  0  0  0  0  0  0  0  0  0
   -1.4289   -2.4750    0.0000 C   0  0  0  0  0  0  0  0  0  0  0  0
   -1.4289   -1.6500    0.0000 C   0  0  0  0  0  0  0  0  0  0  0  0
   -0.7145   -1.2375    0.0000 C   0  0  0  0  0  0  0  0  0  0  0  0
  1  2  1  0  0  0  0
  2  3  1  0  0  0  0
  3  4  2  0  0  0  0
  4  5  1  0  0  0  0
  5  6  2  0  0  0  0
  6  7  1  0  0  0  0
  7  8  1  0  0  0  0
  7  9  2  0  0  0  0
  9 10  1  0  0  0  0
 10 11  2  0  0  0  0
  5 11  1  0  0  0  0
 11 12  1  0  0  0  0
 12 13  1  0  0  0  0
 13 14  1  0  0  0  0
 14 15  2  0  0  0  0
 15 16  1  0  0  0  0
 16 17  2  0  0  0  0
 17 18  1  0  0  0  0
 18 19  2  0  0  0  0
 19 20  1  0  0  0  0
 20 21  2  0  0  0  0
 20 22  1  0  0  0  0
 17 23  1  0  0  0  0
 23 24  2  0  0  0  0
 14 24  1  0  0  0  0
 12 25  2  0  0  0  0
  3 25  1  0  0  0  0
 25 26  1  0  0  0  0
 26 27  2  0  0  0  0
 27 28  1  0  0  0  0
 28 29  2  0  0  0  0
 29 30  1  0  0  0  0
 30 31  2  0  0  0  0
 26 31  1  0  0  0  0
M  END
>  <StandardizerResult>
Tautomerize


>  <CdId>
253

>  <Mol Weight>
411.46

>  <Formula>
C26H21NO4

>  <Molecule ChEMBL ID>
CHEMBL370492

>  <Molecule Max Phase>
0

>  <Molecular Weight>
411.46

>  <#RO5 Violations>
1

>  <AlogP>
6.06

>  <Compound Key>
5802

>  <Standard Type>
pKa_B1

>  <Standard Value>
5.51

>  <Comment>
'B1 Functional Group: Quinolin-7-ol; Ionisation Formula: A2B1 (Functional Group: the part of the molecule the pKa refers to; Ionisation formula: AxBy where 'A' refers to acidic centers within the molecule that are appreciably ionised at a pH <= 11 and 'x' equals 0, 1 or 2; and 'B' refers to basic centers within the molecule that are appreciably ionised at a pH >= 2 and 'y' equals 0, 1, 2 or 3).'

>  <Potential Duplicate>
false

>  <Assay ChEMBL ID>
CHEMBL3301362

>  <Assay Description>
ASTRAZENECA: Most basic pKa value (pKa B1) determined by absorption and potentiometric titration using standard methodology from Sirius Analytical. Experimental range Bases: >= 2.

>  <Assay Type>
P

>  <BAO Format ID>
BAO_0000100

>  <BAO Label>
small-molecule physicochemical format

>  <Target ChEMBL ID>
CHEMBL2362975

>  <Target Name>
No relevant target

>  <Target Type>
NO TARGET

>  <Document ChEMBL ID>
CHEMBL3301361

>  <Source ID>
27

>  <Source Description>
AstraZeneca Deposited Data

>  <Strongest basic pKa>
6.0

>  <deltapKa>
-0.49181262611278953

>  <Strongest basic pKa_Taut>
6.0

>  <deltapKa_TAut>
-0.49181262611278953

$$$$

  Mrv1920 03272013312D          

 22 24  0  0  0  0            999 V2000
    5.8263   -2.0625    0.0000 O   0  0  0  0  0  0  0  0  0  0  0  0
    5.0013   -2.0625    0.0000 S   0  0  0  0  0  0  0  0  0  0  0  0
    4.1763   -2.0625    0.0000 O   0  0  0  0  0  0  0  0  0  0  0  0
    5.0013   -2.8875    0.0000 C   0  0  0  0  0  0  0  0  0  0  0  0
    5.7158   -3.3000    0.0000 C   0  0  0  0  0  0  0  0  0  0  0  0
    5.7158   -4.1250    0.0000 C   0  0  0  0  0  0  0  0  0  0  0  0
    5.0013   -4.5375    0.0000 C   0  0  0  0  0  0  0  0  0  0  0  0
    4.2868   -4.1250    0.0000 C   0  0  0  0  0  0  0  0  0  0  0  0
    4.2868   -3.3000    0.0000 C   0  0  0  0  0  0  0  0  0  0  0  0
    5.0013   -1.2375    0.0000 N   0  0  0  0  0  0  0  0  0  0  0  0
    4.2868   -0.8250    0.0000 C   0  0  0  0  0  0  0  0  0  0  0  0
    4.2868    0.0000    0.0000 C   0  0  0  0  0  0  0  0  0  0  0  0
    5.0013    0.4125    0.0000 N   0  0  0  0  0  0  0  0  0  0  0  0
    5.0013    1.2375    0.0000 C   0  0  0  0  0  0  0  0  0  0  0  0
    5.7158    1.6500    0.0000 C   0  0  0  0  0  0  0  0  0  0  0  0
    5.7158    2.4750    0.0000 C   0  0  0  0  0  0  0  0  0  0  0  0
    6.4302    2.8875    0.0000 C   0  0  0  0  0  0  0  0  0  0  0  0
    7.1447    2.4750    0.0000 C   0  0  0  0  0  0  0  0  0  0  0  0
    7.1447    1.6500    0.0000 C   0  0  0  0  0  0  0  0  0  0  0  0
    6.4302    1.2375    0.0000 C   0  0  0  0  0  0  0  0  0  0  0  0
    5.7158    0.0000    0.0000 C   0  0  0  0  0  0  0  0  0  0  0  0
    5.7158   -0.8250    0.0000 C   0  0  0  0  0  0  0  0  0  0  0  0
  1  2  2  0  0  0  0
  2  3  2  0  0  0  0
  2  4  1  0  0  0  0
  4  5  2  0  0  0  0
  5  6  1  0  0  0  0
  6  7  2  0  0  0  0
  7  8  1  0  0  0  0
  8  9  2  0  0  0  0
  4  9  1  0  0  0  0
  2 10  1  0  0  0  0
 10 11  1  0  0  0  0
 11 12  1  0  0  0  0
 12 13  1  0  0  0  0
 13 14  1  0  0  0  0
 14 15  1  0  0  0  0
 15 16  2  0  0  0  0
 16 17  1  0  0  0  0
 17 18  2  0  0  0  0
 18 19  1  0  0  0  0
 19 20  2  0  0  0  0
 15 20  1  0  0  0  0
 13 21  1  0  0  0  0
 21 22  1  0  0  0  0
 10 22  1  0  0  0  0
M  END
>  <StandardizerResult>
Tautomerize


>  <CdId>
41

>  <Mol Weight>
316.42

>  <Formula>
C17H20N2O2S

>  <Molecule ChEMBL ID>
CHEMBL272551

>  <Molecule Max Phase>
0

>  <Molecular Weight>
316.43

>  <#RO5 Violations>
0

>  <AlogP>
2.19

>  <Compound Key>
1752

>  <Standard Type>
pKa_B1

>  <Standard Value>
5.6

>  <Comment>
'B1 Functional Group: Piperazine; Ionisation Formula: A0B1 (Functional Group: the part of the molecule the pKa refers to; Ionisation formula: AxBy where 'A' refers to acidic centers within the molecule that are appreciably ionised at a pH <= 11 and 'x' equals 0, 1 or 2; and 'B' refers to basic centers within the molecule that are appreciably ionised at a pH >= 2 and 'y' equals 0, 1, 2 or 3).'

>  <Potential Duplicate>
false

>  <Assay ChEMBL ID>
CHEMBL3301362

>  <Assay Description>
ASTRAZENECA: Most basic pKa value (pKa B1) determined by absorption and potentiometric titration using standard methodology from Sirius Analytical. Experimental range Bases: >= 2.

>  <Assay Type>
P

>  <BAO Format ID>
BAO_0000100

>  <BAO Label>
small-molecule physicochemical format

>  <Target ChEMBL ID>
CHEMBL2362975

>  <Target Name>
No relevant target

>  <Target Type>
NO TARGET

>  <Document ChEMBL ID>
CHEMBL3301361

>  <Source ID>
27

>  <Source Description>
AstraZeneca Deposited Data

>  <Strongest basic pKa>
6.08

>  <deltapKa>
-0.48070752338254863

>  <Strongest basic pKa_Taut>
6.08

>  <deltapKa_TAut>
-0.48070752338254863

$$$$

  Mrv1920 03272013312D          

 14 15  0  0  0  0            999 V2000
    1.4289   -4.1250    0.0000 C   0  0  0  0  0  0  0  0  0  0  0  0
    0.7145   -3.7125    0.0000 C   0  0  0  0  0  0  0  0  0  0  0  0
    0.7145   -2.8875    0.0000 C   0  0  0  0  0  0  0  0  0  0  0  0
    1.4289   -2.4750    0.0000 C   0  0  0  0  0  0  0  0  0  0  0  0
    1.4289   -1.6500    0.0000 S   0  0  0  0  0  0  0  0  0  0  0  0
    0.7145   -1.2375    0.0000 C   0  0  0  0  0  0  0  0  0  0  0  0
    0.7145   -0.4125    0.0000 C   0  0  0  0  0  0  0  0  0  0  0  0
    0.0000    0.0000    0.0000 C   0  0  0  0  0  0  0  0  0  0  0  0
    0.0000    0.8250    0.0000 C   0  0  0  0  0  0  0  0  0  0  0  0
    0.7145    1.2375    0.0000 C   0  0  0  0  0  0  0  0  0  0  0  0
    1.4289    0.8250    0.0000 C   0  0  0  0  0  0  0  0  0  0  0  0
    1.4289    0.0000    0.0000 N   0  0  0  0  0  0  0  0  0  0  0  0
    2.1434   -2.8875    0.0000 C   0  0  0  0  0  0  0  0  0  0  0  0
    2.1434   -3.7125    0.0000 C   0  0  0  0  0  0  0  0  0  0  0  0
  1  2  2  0  0  0  0
  2  3  1  0  0  0  0
  3  4  2  0  0  0  0
  4  5  1  0  0  0  0
  5  6  1  0  0  0  0
  6  7  1  0  0  0  0
  7  8  2  0  0  0  0
  8  9  1  0  0  0  0
  9 10  2  0  0  0  0
 10 11  1  0  0  0  0
 11 12  2  0  0  0  0
  7 12  1  0  0  0  0
  4 13  1  0  0  0  0
 13 14  2  0  0  0  0
  1 14  1  0  0  0  0
M  END
>  <StandardizerResult>
Tautomerize


>  <CdId>
150

>  <Mol Weight>
201.29

>  <Formula>
C12H11NS

>  <Molecule ChEMBL ID>
CHEMBL1189805

>  <Molecule Max Phase>
0

>  <Molecular Weight>
201.29

>  <#RO5 Violations>
0

>  <AlogP>
3.37

>  <Compound Key>
608

>  <Standard Type>
pKa_B1

>  <Standard Value>
3.8

>  <Comment>
'B1 Functional Group: Pyridine; Ionisation Formula: A0B1 (Functional Group: the part of the molecule the pKa refers to; Ionisation formula: AxBy where 'A' refers to acidic centers within the molecule that are appreciably ionised at a pH <= 11 and 'x' equals 0, 1 or 2; and 'B' refers to basic centers within the molecule that are appreciably ionised at a pH >= 2 and 'y' equals 0, 1, 2 or 3).'

>  <Potential Duplicate>
false

>  <Assay ChEMBL ID>
CHEMBL3301362

>  <Assay Description>
ASTRAZENECA: Most basic pKa value (pKa B1) determined by absorption and potentiometric titration using standard methodology from Sirius Analytical. Experimental range Bases: >= 2.

>  <Assay Type>
P

>  <BAO Format ID>
BAO_0000100

>  <BAO Label>
small-molecule physicochemical format

>  <Target ChEMBL ID>
CHEMBL2362975

>  <Target Name>
No relevant target

>  <Target Type>
NO TARGET

>  <Document ChEMBL ID>
CHEMBL3301361

>  <Source ID>
27

>  <Source Description>
AstraZeneca Deposited Data

>  <Strongest basic pKa>
4.27

>  <deltapKa>
-0.46976014560759083

>  <Strongest basic pKa_Taut>
4.27

>  <deltapKa_TAut>
-0.46976014560759083

$$$$

  Mrv1920 03272013312D          

 34 37  0  0  1  0            999 V2000
    7.8592    2.0625    0.0000 C   0  0  0  0  0  0  0  0  0  0  0  0
    7.8592    1.2375    0.0000 C   0  0  0  0  0  0  0  0  0  0  0  0
    8.5737    0.8250    0.0000 C   0  0  0  0  0  0  0  0  0  0  0  0
    8.5737    0.0000    0.0000 C   0  0  0  0  0  0  0  0  0  0  0  0
    7.8592   -0.4125    0.0000 C   0  0  0  0  0  0  0  0  0  0  0  0
    7.1447    0.0000    0.0000 C   0  0  0  0  0  0  0  0  0  0  0  0
    7.1447    0.8250    0.0000 C   0  0  0  0  0  0  0  0  0  0  0  0
    6.4302    1.2375    0.0000 C   0  0  0  0  0  0  0  0  0  0  0  0
    5.7158    0.8250    0.0000 C   0  0  1  0  0  0  0  0  0  0  0  0
    5.7158    0.0000    0.0000 C   0  0  0  0  0  0  0  0  0  0  0  0
    5.0013   -0.4125    0.0000 O   0  0  0  0  0  0  0  0  0  0  0  0
    6.4302   -0.4125    0.0000 O   0  0  0  0  0  0  0  0  0  0  0  0
    5.0013    1.2375    0.0000 N   0  0  0  0  0  0  0  0  0  0  0  0
    4.2868    0.8250    0.0000 C   0  0  0  0  0  0  0  0  0  0  0  0
    3.5724    1.2375    0.0000 C   0  0  0  0  0  0  0  0  0  0  0  0
    3.5724    2.0625    0.0000 C   0  0  0  0  0  0  0  0  0  0  0  0
    2.8579    2.4750    0.0000 C   0  0  0  0  0  0  0  0  0  0  0  0
    2.8579    3.3000    0.0000 N   0  0  0  0  0  0  0  0  0  0  0  0
    2.1434    3.7125    0.0000 C   0  0  0  0  0  0  0  0  0  0  0  0
    2.1434    4.5375    0.0000 C   0  0  0  0  0  0  0  0  0  0  0  0
    2.8579    4.9500    0.0000 C   0  0  0  0  0  0  0  0  0  0  0  0
    2.8579    5.7750    0.0000 O   0  0  0  0  0  0  0  0  0  0  0  0
    3.5724    6.1875    0.0000 C   0  0  0  0  0  0  0  0  0  0  0  0
    3.5724    7.0125    0.0000 C   0  0  0  0  0  0  0  0  0  0  0  0
    4.2868    7.4250    0.0000 C   0  0  0  0  0  0  0  0  0  0  0  0
    5.0013    7.0125    0.0000 C   0  0  0  0  0  0  0  0  0  0  0  0
    5.7158    7.4250    0.0000 Cl  0  0  0  0  0  0  0  0  0  0  0  0
    5.0013    6.1875    0.0000 C   0  0  0  0  0  0  0  0  0  0  0  0
    5.7158    5.7750    0.0000 Cl  0  0  0  0  0  0  0  0  0  0  0  0
    4.2868    5.7750    0.0000 C   0  0  0  0  0  0  0  0  0  0  0  0
    3.5724    4.5375    0.0000 C   0  0  0  0  0  0  0  0  0  0  0  0
    3.5724    3.7125    0.0000 C   0  0  0  0  0  0  0  0  0  0  0  0
    4.2868    2.4750    0.0000 C   0  0  0  0  0  0  0  0  0  0  0  0
    5.0013    2.0625    0.0000 C   0  0  0  0  0  0  0  0  0  0  0  0
  1  2  1  0  0  0  0
  2  3  2  0  0  0  0
  3  4  1  0  0  0  0
  4  5  2  0  0  0  0
  5  6  1  0  0  0  0
  6  7  2  0  0  0  0
  2  7  1  0  0  0  0
  7  8  1  0  0  0  0
  9  8  1  1  0  0  0
  9 10  1  0  0  0  0
 10 11  2  0  0  0  0
 10 12  1  0  0  0  0
  9 13  1  0  0  0  0
 13 14  1  0  0  0  0
 14 15  1  0  0  0  0
 15 16  1  0  0  0  0
 16 17  1  0  0  0  0
 17 18  1  0  0  0  0
 18 19  1  0  0  0  0
 19 20  1  0  0  0  0
 20 21  1  0  0  0  0
 21 22  1  0  0  0  0
 22 23  1  0  0  0  0
 23 24  2  0  0  0  0
 24 25  1  0  0  0  0
 25 26  2  0  0  0  0
 26 27  1  0  0  0  0
 26 28  1  0  0  0  0
 28 29  1  0  0  0  0
 28 30  2  0  0  0  0
 23 30  1  0  0  0  0
 21 31  1  0  0  0  0
 31 32  1  0  0  0  0
 18 32  1  0  0  0  0
 16 33  1  0  0  0  0
 33 34  1  0  0  0  0
 13 34  1  0  0  0  0
M  END
>  <StandardizerResult>
Tautomerize


>  <CdId>
207

>  <Mol Weight>
505.48

>  <Formula>
C27H34Cl2N2O3

>  <Molecule ChEMBL ID>
CHEMBL2158772

>  <Molecule Max Phase>
0

>  <Molecular Weight>
505.49

>  <#RO5 Violations>
2

>  <AlogP>
5.55

>  <Compound Key>
2688

>  <Standard Type>
pKa_B1

>  <Standard Value>
9.2

>  <Comment>
'B1 Functional Group: Piperidine; Ionisation Formula: A1B2 (Functional Group: the part of the molecule the pKa refers to; Ionisation formula: AxBy where 'A' refers to acidic centers within the molecule that are appreciably ionised at a pH <= 11 and 'x' equals 0, 1 or 2; and 'B' refers to basic centers within the molecule that are appreciably ionised at a pH >= 2 and 'y' equals 0, 1, 2 or 3).'

>  <Potential Duplicate>
false

>  <Assay ChEMBL ID>
CHEMBL3301362

>  <Assay Description>
ASTRAZENECA: Most basic pKa value (pKa B1) determined by absorption and potentiometric titration using standard methodology from Sirius Analytical. Experimental range Bases: >= 2.

>  <Assay Type>
P

>  <BAO Format ID>
BAO_0000100

>  <BAO Label>
small-molecule physicochemical format

>  <Target ChEMBL ID>
CHEMBL2362975

>  <Target Name>
No relevant target

>  <Target Type>
NO TARGET

>  <Document ChEMBL ID>
CHEMBL3301361

>  <Source ID>
27

>  <Source Description>
AstraZeneca Deposited Data

>  <Strongest basic pKa>
9.64

>  <deltapKa>
-0.4435461180175544

>  <Strongest basic pKa_Taut>
9.64

>  <deltapKa_TAut>
-0.4435461180175544

$$$$

  Mrv1920 03272013312D          

 33 36  0  0  1  0            999 V2000
    2.8579   -0.8250    0.0000 O   0  0  0  0  0  0  0  0  0  0  0  0
    2.8579    0.0000    0.0000 C   0  0  0  0  0  0  0  0  0  0  0  0
    3.5724    0.4125    0.0000 N   0  0  0  0  0  0  0  0  0  0  0  0
    4.2868    0.0000    0.0000 C   0  0  0  0  0  0  0  0  0  0  0  0
    5.0013    0.4125    0.0000 C   0  0  1  0  0  0  0  0  0  0  0  0
    5.0013    1.2375    0.0000 O   0  0  0  0  0  0  0  0  0  0  0  0
    5.7158    0.0000    0.0000 C   0  0  0  0  0  0  0  0  0  0  0  0
    6.4302    0.4125    0.0000 N   0  0  0  0  0  0  0  0  0  0  0  0
    6.4302    1.2375    0.0000 C   0  0  0  0  0  0  0  0  0  0  0  0
    7.1447    1.6500    0.0000 C   0  0  0  0  0  0  0  0  0  0  0  0
    7.8592    1.2375    0.0000 C   0  0  0  0  0  0  0  0  0  0  0  0
    8.5737    1.6500    0.0000 O   0  0  0  0  0  0  0  0  0  0  0  0
    9.2881    1.2375    0.0000 C   0  0  0  0  0  0  0  0  0  0  0  0
   10.0026    1.6500    0.0000 C   0  0  0  0  0  0  0  0  0  0  0  0
   10.7171    1.2375    0.0000 C   0  0  0  0  0  0  0  0  0  0  0  0
   10.7171    0.4125    0.0000 C   0  0  0  0  0  0  0  0  0  0  0  0
   11.4315    0.0000    0.0000 Cl  0  0  0  0  0  0  0  0  0  0  0  0
   10.0026    0.0000    0.0000 C   0  0  0  0  0  0  0  0  0  0  0  0
   10.0026   -0.8250    0.0000 Cl  0  0  0  0  0  0  0  0  0  0  0  0
    9.2881    0.4125    0.0000 C   0  0  0  0  0  0  0  0  0  0  0  0
    7.8592    0.4125    0.0000 C   0  0  0  0  0  0  0  0  0  0  0  0
    7.1447    0.0000    0.0000 C   0  0  0  0  0  0  0  0  0  0  0  0
    2.1434    0.4125    0.0000 C   0  0  0  0  0  0  0  0  0  0  0  0
    1.4289    0.0000    0.0000 C   0  0  0  0  0  0  0  0  0  0  0  0
    0.7145    0.4125    0.0000 N   0  0  0  0  0  0  0  0  0  0  0  0
    0.7145    1.2375    0.0000 C   0  0  0  0  0  0  0  0  0  0  0  0
    0.0000    1.6500    0.0000 O   0  0  0  0  0  0  0  0  0  0  0  0
    1.4289    1.6500    0.0000 C   0  0  0  0  0  0  0  0  0  0  0  0
    1.4289    2.4750    0.0000 C   0  0  0  0  0  0  0  0  0  0  0  0
    2.1434    2.8875    0.0000 C   0  0  0  0  0  0  0  0  0  0  0  0
    2.8579    2.4750    0.0000 C   0  0  0  0  0  0  0  0  0  0  0  0
    2.8579    1.6500    0.0000 C   0  0  0  0  0  0  0  0  0  0  0  0
    2.1434    1.2375    0.0000 C   0  0  0  0  0  0  0  0  0  0  0  0
  1  2  2  0  0  0  0
  2  3  1  0  0  0  0
  3  4  1  0  0  0  0
  5  4  1  0  0  0  0
  5  6  1  1  0  0  0
  5  7  1  0  0  0  0
  7  8  1  0  0  0  0
  8  9  1  0  0  0  0
  9 10  1  0  0  0  0
 10 11  1  0  0  0  0
 11 12  1  0  0  0  0
 12 13  1  0  0  0  0
 13 14  2  0  0  0  0
 14 15  1  0  0  0  0
 15 16  2  0  0  0  0
 16 17  1  0  0  0  0
 16 18  1  0  0  0  0
 18 19  1  0  0  0  0
 18 20  2  0  0  0  0
 13 20  1  0  0  0  0
 11 21  1  0  0  0  0
 21 22  1  0  0  0  0
  8 22  1  0  0  0  0
  2 23  1  0  0  0  0
 23 24  2  0  0  0  0
 24 25  1  0  0  0  0
 25 26  1  0  0  0  0
 26 27  2  0  0  0  0
 26 28  1  0  0  0  0
 28 29  2  0  0  0  0
 29 30  1  0  0  0  0
 30 31  2  0  0  0  0
 31 32  1  0  0  0  0
 32 33  2  0  0  0  0
 23 33  1  0  0  0  0
 28 33  1  0  0  0  0
M  END
>  <StandardizerResult>
Tautomerize


>  <CdId>
192

>  <Mol Weight>
490.38

>  <Formula>
C24H25Cl2N3O4

>  <Molecule ChEMBL ID>
CHEMBL2207666

>  <Molecule Max Phase>
0

>  <Molecular Weight>
490.39

>  <#RO5 Violations>
0

>  <AlogP>
3.47

>  <Compound Key>
2089

>  <Standard Type>
pKa_B1

>  <Standard Value>
7.7

>  <Comment>
'B1 Functional Group: Piperidine; Ionisation Formula: A1B1 (Functional Group: the part of the molecule the pKa refers to; Ionisation formula: AxBy where 'A' refers to acidic centers within the molecule that are appreciably ionised at a pH <= 11 and 'x' equals 0, 1 or 2; and 'B' refers to basic centers within the molecule that are appreciably ionised at a pH >= 2 and 'y' equals 0, 1, 2 or 3).'

>  <Potential Duplicate>
false

>  <Assay ChEMBL ID>
CHEMBL3301362

>  <Assay Description>
ASTRAZENECA: Most basic pKa value (pKa B1) determined by absorption and potentiometric titration using standard methodology from Sirius Analytical. Experimental range Bases: >= 2.

>  <Assay Type>
P

>  <BAO Format ID>
BAO_0000100

>  <BAO Label>
small-molecule physicochemical format

>  <Target ChEMBL ID>
CHEMBL2362975

>  <Target Name>
No relevant target

>  <Target Type>
NO TARGET

>  <Document ChEMBL ID>
CHEMBL3301361

>  <Source ID>
27

>  <Source Description>
AstraZeneca Deposited Data

>  <Strongest basic pKa>
8.11

>  <deltapKa>
-0.41055006330119337

>  <Strongest basic pKa_Taut>
8.11

>  <deltapKa_TAut>
-0.41055006330119337

$$$$

  Mrv1920 03272013312D          

 33 35  0  0  1  0            999 V2000
    0.7145   -2.0625    0.0000 O   0  0  0  0  0  0  0  0  0  0  0  0
    0.7145   -1.2375    0.0000 C   0  0  0  0  0  0  0  0  0  0  0  0
    1.4289   -0.8250    0.0000 N   0  0  0  0  0  0  0  0  0  0  0  0
    2.1434   -1.2375    0.0000 C   0  0  0  0  0  0  0  0  0  0  0  0
    2.8579   -0.8250    0.0000 C   0  0  1  0  0  0  0  0  0  0  0  0
    2.8579    0.0000    0.0000 O   0  0  0  0  0  0  0  0  0  0  0  0
    3.5724   -1.2375    0.0000 C   0  0  0  0  0  0  0  0  0  0  0  0
    4.2868   -0.8250    0.0000 N   0  0  0  0  0  0  0  0  0  0  0  0
    4.2868    0.0000    0.0000 C   0  0  0  0  0  0  0  0  0  0  0  0
    5.0013    0.4125    0.0000 C   0  0  0  0  0  0  0  0  0  0  0  0
    5.7158    0.0000    0.0000 C   0  0  0  0  0  0  0  0  0  0  0  0
    6.4302    0.4125    0.0000 O   0  0  0  0  0  0  0  0  0  0  0  0
    7.1447    0.0000    0.0000 C   0  0  0  0  0  0  0  0  0  0  0  0
    7.8592    0.4125    0.0000 C   0  0  0  0  0  0  0  0  0  0  0  0
    8.5737    0.0000    0.0000 C   0  0  0  0  0  0  0  0  0  0  0  0
    8.5737   -0.8250    0.0000 C   0  0  0  0  0  0  0  0  0  0  0  0
    9.2881   -1.2375    0.0000 Cl  0  0  0  0  0  0  0  0  0  0  0  0
    7.8592   -1.2375    0.0000 C   0  0  0  0  0  0  0  0  0  0  0  0
    7.8592   -2.0625    0.0000 Cl  0  0  0  0  0  0  0  0  0  0  0  0
    7.1447   -0.8250    0.0000 C   0  0  0  0  0  0  0  0  0  0  0  0
    5.7158   -0.8250    0.0000 C   0  0  0  0  0  0  0  0  0  0  0  0
    5.0013   -1.2375    0.0000 C   0  0  0  0  0  0  0  0  0  0  0  0
    0.0000   -0.8250    0.0000 C   0  0  0  0  0  0  0  0  0  0  0  0
   -0.7145   -1.2375    0.0000 C   0  0  0  0  0  0  0  0  0  0  0  0
   -1.4289   -0.8250    0.0000 N   0  0  0  0  0  0  0  0  0  0  0  0
   -1.4289    0.0000    0.0000 C   0  0  0  0  0  0  0  0  0  0  0  0
   -2.1434    0.4125    0.0000 O   0  0  0  0  0  0  0  0  0  0  0  0
   -0.7145    0.4125    0.0000 C   0  0  0  0  0  0  0  0  0  0  0  0
    0.0000    0.0000    0.0000 C   0  0  0  0  0  0  0  0  0  0  0  0
    0.7145    0.4125    0.0000 C   0  0  0  0  0  0  0  0  0  0  0  0
    1.4289    0.8250    0.0000 F   0  0  0  0  0  0  0  0  0  0  0  0
    1.1270   -0.3020    0.0000 F   0  0  0  0  0  0  0  0  0  0  0  0
    0.3020    1.1270    0.0000 F   0  0  0  0  0  0  0  0  0  0  0  0
  1  2  2  0  0  0  0
  2  3  1  0  0  0  0
  3  4  1  0  0  0  0
  5  4  1  0  0  0  0
  5  6  1  1  0  0  0
  5  7  1  0  0  0  0
  7  8  1  0  0  0  0
  8  9  1  0  0  0  0
  9 10  1  0  0  0  0
 10 11  1  0  0  0  0
 11 12  1  0  0  0  0
 12 13  1  0  0  0  0
 13 14  2  0  0  0  0
 14 15  1  0  0  0  0
 15 16  2  0  0  0  0
 16 17  1  0  0  0  0
 16 18  1  0  0  0  0
 18 19  1  0  0  0  0
 18 20  2  0  0  0  0
 13 20  1  0  0  0  0
 11 21  1  0  0  0  0
 21 22  1  0  0  0  0
  8 22  1  0  0  0  0
  2 23  1  0  0  0  0
 23 24  2  0  0  0  0
 24 25  1  0  0  0  0
 25 26  1  0  0  0  0
 26 27  2  0  0  0  0
 26 28  1  0  0  0  0
 28 29  2  0  0  0  0
 23 29  1  0  0  0  0
 29 30  1  0  0  0  0
 30 31  1  0  0  0  0
 30 32  1  0  0  0  0
 30 33  1  0  0  0  0
M  END
>  <StandardizerResult>
Tautomerize


>  <CdId>
39

>  <Mol Weight>
508.32

>  <Formula>
C21H22Cl2F3N3O4

>  <Molecule ChEMBL ID>
CHEMBL2207662

>  <Molecule Max Phase>
0

>  <Molecular Weight>
508.32

>  <#RO5 Violations>
1

>  <AlogP>
3.33

>  <Compound Key>
2458

>  <Standard Type>
pKa_B1

>  <Standard Value>
7.7

>  <Comment>
'B1 Functional Group: Piperidine; Ionisation Formula: A1B1 (Functional Group: the part of the molecule the pKa refers to; Ionisation formula: AxBy where 'A' refers to acidic centers within the molecule that are appreciably ionised at a pH <= 11 and 'x' equals 0, 1 or 2; and 'B' refers to basic centers within the molecule that are appreciably ionised at a pH >= 2 and 'y' equals 0, 1, 2 or 3).'

>  <Potential Duplicate>
false

>  <Assay ChEMBL ID>
CHEMBL3301362

>  <Assay Description>
ASTRAZENECA: Most basic pKa value (pKa B1) determined by absorption and potentiometric titration using standard methodology from Sirius Analytical. Experimental range Bases: >= 2.

>  <Assay Type>
P

>  <BAO Format ID>
BAO_0000100

>  <BAO Label>
small-molecule physicochemical format

>  <Target ChEMBL ID>
CHEMBL2362975

>  <Target Name>
No relevant target

>  <Target Type>
NO TARGET

>  <Document ChEMBL ID>
CHEMBL3301361

>  <Source ID>
27

>  <Source Description>
AstraZeneca Deposited Data

>  <Strongest basic pKa>
8.11

>  <deltapKa>
-0.40893122280949346

>  <Strongest basic pKa_Taut>
8.11

>  <deltapKa_TAut>
-0.40893122280949346

$$$$

  Mrv1920 03272013312D          

 23 25  0  0  0  0            999 V2000
   -0.7145   -0.4125    0.0000 N   0  0  0  0  0  0  0  0  0  0  0  0
   -0.7145   -1.2375    0.0000 C   0  0  0  0  0  0  0  0  0  0  0  0
    0.0000   -1.6500    0.0000 N   0  0  0  0  0  0  0  0  0  0  0  0
    0.0000   -2.4750    0.0000 C   0  0  0  0  0  0  0  0  0  0  0  0
    0.7145   -2.8875    0.0000 C   0  0  0  0  0  0  0  0  0  0  0  0
    1.4289   -2.4750    0.0000 C   0  0  0  0  0  0  0  0  0  0  0  0
    2.1434   -2.8875    0.0000 C   0  0  0  0  0  0  0  0  0  0  0  0
    2.1434   -3.7125    0.0000 C   0  0  0  0  0  0  0  0  0  0  0  0
    1.4289   -4.1250    0.0000 C   0  0  0  0  0  0  0  0  0  0  0  0
    0.7145   -3.7125    0.0000 N   0  0  0  0  0  0  0  0  0  0  0  0
   -0.7145   -2.8875    0.0000 N   0  0  0  0  0  0  0  0  0  0  0  0
   -1.4289   -2.4750    0.0000 C   0  0  0  0  0  0  0  0  0  0  0  0
   -2.1434   -2.8875    0.0000 N   0  0  0  0  0  0  0  0  0  0  0  0
   -1.4289   -1.6500    0.0000 C   0  0  0  0  0  0  0  0  0  0  0  0
   -2.1434   -1.2375    0.0000 C   0  0  0  0  0  0  0  0  0  0  0  0
   -2.8579   -1.6500    0.0000 C   0  0  0  0  0  0  0  0  0  0  0  0
   -2.8579   -2.4750    0.0000 C   0  0  0  0  0  0  0  0  0  0  0  0
   -3.5724   -2.8875    0.0000 C   0  0  0  0  0  0  0  0  0  0  0  0
   -4.2868   -2.4750    0.0000 C   0  0  0  0  0  0  0  0  0  0  0  0
   -5.0013   -2.8875    0.0000 Cl  0  0  0  0  0  0  0  0  0  0  0  0
   -4.2868   -1.6500    0.0000 C   0  0  0  0  0  0  0  0  0  0  0  0
   -3.5724   -1.2375    0.0000 C   0  0  0  0  0  0  0  0  0  0  0  0
   -3.5724   -0.4125    0.0000 Cl  0  0  0  0  0  0  0  0  0  0  0  0
  1  2  1  0  0  0  0
  2  3  2  0  0  0  0
  3  4  1  0  0  0  0
  4  5  1  0  0  0  0
  5  6  2  0  0  0  0
  6  7  1  0  0  0  0
  7  8  2  0  0  0  0
  8  9  1  0  0  0  0
  9 10  2  0  0  0  0
  5 10  1  0  0  0  0
  4 11  2  0  0  0  0
 11 12  1  0  0  0  0
 12 13  1  0  0  0  0
 12 14  2  0  0  0  0
  2 14  1  0  0  0  0
 14 15  1  0  0  0  0
 15 16  1  0  0  0  0
 16 17  2  0  0  0  0
 17 18  1  0  0  0  0
 18 19  2  0  0  0  0
 19 20  1  0  0  0  0
 19 21  1  0  0  0  0
 21 22  2  0  0  0  0
 16 22  1  0  0  0  0
 22 23  1  0  0  0  0
M  END
>  <StandardizerResult>
Tautomerize


>  <CdId>
217

>  <Mol Weight>
346.22

>  <Formula>
C16H13Cl2N5

>  <Molecule ChEMBL ID>
CHEMBL1299757

>  <Molecule Max Phase>
0

>  <Molecular Weight>
346.22

>  <#RO5 Violations>
0

>  <AlogP>
3.6

>  <Compound Key>
691

>  <Standard Type>
pKa_B1

>  <Standard Value>
5.58

>  <Comment>
'B1 Functional Group: Pyrimidine-4,6-diamine; Ionisation Formula: A0B1 (Functional Group: the part of the molecule the pKa refers to; Ionisation formula: AxBy where 'A' refers to acidic centers within the molecule that are appreciably ionised at a pH <= 11 and 'x' equals 0, 1 or 2; and 'B' refers to basic centers within the molecule that are appreciably ionised at a pH >= 2 and 'y' equals 0, 1, 2 or 3).'

>  <Potential Duplicate>
false

>  <Assay ChEMBL ID>
CHEMBL3301362

>  <Assay Description>
ASTRAZENECA: Most basic pKa value (pKa B1) determined by absorption and potentiometric titration using standard methodology from Sirius Analytical. Experimental range Bases: >= 2.

>  <Assay Type>
P

>  <BAO Format ID>
BAO_0000100

>  <BAO Label>
small-molecule physicochemical format

>  <Target ChEMBL ID>
CHEMBL2362975

>  <Target Name>
No relevant target

>  <Target Type>
NO TARGET

>  <Document ChEMBL ID>
CHEMBL3301361

>  <Source ID>
27

>  <Source Description>
AstraZeneca Deposited Data

>  <Strongest basic pKa>
5.99

>  <deltapKa>
-0.4071399708465657

>  <Strongest basic pKa_Taut>
5.99

>  <deltapKa_TAut>
-0.4071399708465657

$$$$

  Mrv1920 03272013312D          

 19 21  0  0  0  0            999 V2000
   -3.8837   -2.8414    0.0000 C   0  0  0  0  0  0  0  0  0  0  0  0
   -3.0587   -2.8414    0.0000 O   0  0  0  0  0  0  0  0  0  0  0  0
   -2.6462   -2.1269    0.0000 C   0  0  0  0  0  0  0  0  0  0  0  0
   -3.0587   -1.4124    0.0000 C   0  0  0  0  0  0  0  0  0  0  0  0
   -2.6462   -0.6979    0.0000 C   0  0  0  0  0  0  0  0  0  0  0  0
   -1.8212   -0.6979    0.0000 N   0  0  0  0  0  0  0  0  0  0  0  0
   -1.4087   -1.4124    0.0000 C   0  0  0  0  0  0  0  0  0  0  0  0
   -0.5837   -1.4124    0.0000 C   0  0  0  0  0  0  0  0  0  0  0  0
   -0.1712   -0.6979    0.0000 S   0  0  0  0  0  0  0  0  0  0  0  0
    0.6538   -0.6979    0.0000 C   0  0  0  0  0  0  0  0  0  0  0  0
    1.1387   -0.0305    0.0000 N   0  0  0  0  0  0  0  0  0  0  0  0
    1.9233   -0.2854    0.0000 C   0  0  0  0  0  0  0  0  0  0  0  0
    2.6378    0.1271    0.0000 C   0  0  0  0  0  0  0  0  0  0  0  0
    3.3523   -0.2854    0.0000 C   0  0  0  0  0  0  0  0  0  0  0  0
    3.3523   -1.1104    0.0000 C   0  0  0  0  0  0  0  0  0  0  0  0
    2.6378   -1.5229    0.0000 C   0  0  0  0  0  0  0  0  0  0  0  0
    1.9233   -1.1104    0.0000 C   0  0  0  0  0  0  0  0  0  0  0  0
    1.1387   -1.3654    0.0000 N   0  0  0  0  0  0  0  0  0  0  0  0
   -1.8212   -2.1269    0.0000 C   0  0  0  0  0  0  0  0  0  0  0  0
  1  2  1  0  0  0  0
  2  3  1  0  0  0  0
  3  4  2  0  0  0  0
  4  5  1  0  0  0  0
  5  6  2  0  0  0  0
  6  7  1  0  0  0  0
  7  8  1  0  0  0  0
  8  9  1  0  0  0  0
  9 10  1  0  0  0  0
 10 11  2  0  0  0  0
 11 12  1  0  0  0  0
 12 13  2  0  0  0  0
 13 14  1  0  0  0  0
 14 15  2  0  0  0  0
 15 16  1  0  0  0  0
 16 17  2  0  0  0  0
 12 17  1  0  0  0  0
 17 18  1  0  0  0  0
 10 18  1  0  0  0  0
  7 19  2  0  0  0  0
  3 19  1  0  0  0  0
M  END
>  <StandardizerResult>
Tautomerize


>  <CdId>
197

>  <Mol Weight>
271.34

>  <Formula>
C14H13N3OS

>  <Molecule ChEMBL ID>
CHEMBL51478

>  <Molecule Max Phase>
0

>  <Molecular Weight>
271.35

>  <#RO5 Violations>
0

>  <AlogP>
3.26

>  <Compound Key>
1781

>  <Standard Type>
pKa_B1

>  <Standard Value>
5.3

>  <Comment>
'B1 Functional Group: Pyridine; Ionisation Formula: A0B2 (Functional Group: the part of the molecule the pKa refers to; Ionisation formula: AxBy where 'A' refers to acidic centers within the molecule that are appreciably ionised at a pH <= 11 and 'x' equals 0, 1 or 2; and 'B' refers to basic centers within the molecule that are appreciably ionised at a pH >= 2 and 'y' equals 0, 1, 2 or 3).'

>  <Potential Duplicate>
false

>  <Assay ChEMBL ID>
CHEMBL3301362

>  <Assay Description>
ASTRAZENECA: Most basic pKa value (pKa B1) determined by absorption and potentiometric titration using standard methodology from Sirius Analytical. Experimental range Bases: >= 2.

>  <Assay Type>
P

>  <BAO Format ID>
BAO_0000100

>  <BAO Label>
small-molecule physicochemical format

>  <Target ChEMBL ID>
CHEMBL2362975

>  <Target Name>
No relevant target

>  <Target Type>
NO TARGET

>  <Document ChEMBL ID>
CHEMBL3301361

>  <Source ID>
27

>  <Source Description>
AstraZeneca Deposited Data

>  <Strongest basic pKa>
5.69

>  <deltapKa>
-0.3937462219526502

>  <Strongest basic pKa_Taut>
5.69

>  <deltapKa_TAut>
-0.3937462219526502

$$$$

  Mrv1920 03272013312D          

 16 17  0  0  0  0            999 V2000
    0.7145   -0.4125    0.0000 N   0  0  0  0  0  0  0  0  0  0  0  0
    0.7145   -1.2375    0.0000 C   0  0  0  0  0  0  0  0  0  0  0  0
    1.4289   -1.6500    0.0000 N   0  0  0  0  0  0  0  0  0  0  0  0
    1.4289   -2.4750    0.0000 N   0  0  0  0  0  0  0  0  0  0  0  0
    0.7145   -2.8875    0.0000 C   0  0  0  0  0  0  0  0  0  0  0  0
    0.7145   -3.7125    0.0000 C   0  0  0  0  0  0  0  0  0  0  0  0
    1.4289   -4.1250    0.0000 C   0  0  0  0  0  0  0  0  0  0  0  0
    1.4289   -4.9500    0.0000 C   0  0  0  0  0  0  0  0  0  0  0  0
    0.7145   -5.3625    0.0000 C   0  0  0  0  0  0  0  0  0  0  0  0
    0.0000   -4.9500    0.0000 C   0  0  0  0  0  0  0  0  0  0  0  0
   -0.7145   -5.3625    0.0000 Cl  0  0  0  0  0  0  0  0  0  0  0  0
    0.0000   -4.1250    0.0000 C   0  0  0  0  0  0  0  0  0  0  0  0
   -0.7145   -3.7125    0.0000 Cl  0  0  0  0  0  0  0  0  0  0  0  0
    0.0000   -2.4750    0.0000 C   0  0  0  0  0  0  0  0  0  0  0  0
   -0.7145   -2.8875    0.0000 N   0  0  0  0  0  0  0  0  0  0  0  0
    0.0000   -1.6500    0.0000 N   0  0  0  0  0  0  0  0  0  0  0  0
  1  2  1  0  0  0  0
  2  3  2  0  0  0  0
  3  4  1  0  0  0  0
  4  5  2  0  0  0  0
  5  6  1  0  0  0  0
  6  7  2  0  0  0  0
  7  8  1  0  0  0  0
  8  9  2  0  0  0  0
  9 10  1  0  0  0  0
 10 11  1  0  0  0  0
 10 12  2  0  0  0  0
  6 12  1  0  0  0  0
 12 13  1  0  0  0  0
  5 14  1  0  0  0  0
 14 15  1  0  0  0  0
 14 16  2  0  0  0  0
  2 16  1  0  0  0  0
M  END
>  <StandardizerResult>
Tautomerize


>  <CdId>
166

>  <Mol Weight>
256.09

>  <Formula>
C9H7Cl2N5

>  <Molecule ChEMBL ID>
CHEMBL741

>  <Molecule Name>
LAMOTRIGINE

>  <Molecule Max Phase>
4

>  <Molecular Weight>
256.1

>  <#RO5 Violations>
0

>  <AlogP>
2.01

>  <Compound Key>
152

>  <Standard Type>
pKa_B1

>  <Standard Value>
5.5

>  <Comment>
'B1 Functional Group: 1,2,4-Triazine-3,5-diamine; Ionisation Formula: A0B1 (Functional Group: the part of the molecule the pKa refers to; Ionisation formula: AxBy where 'A' refers to acidic centers within the molecule that are appreciably ionised at a pH <= 11 and 'x' equals 0, 1 or 2; and 'B' refers to basic centers within the molecule that are appreciably ionised at a pH >= 2 and 'y' equals 0, 1, 2 or 3).'

>  <Potential Duplicate>
false

>  <Assay ChEMBL ID>
CHEMBL3301362

>  <Assay Description>
ASTRAZENECA: Most basic pKa value (pKa B1) determined by absorption and potentiometric titration using standard methodology from Sirius Analytical. Experimental range Bases: >= 2.

>  <Assay Type>
P

>  <BAO Format ID>
BAO_0000100

>  <BAO Label>
small-molecule physicochemical format

>  <Target ChEMBL ID>
CHEMBL2362975

>  <Target Name>
No relevant target

>  <Target Type>
NO TARGET

>  <Document ChEMBL ID>
CHEMBL3301361

>  <Source ID>
27

>  <Source Description>
AstraZeneca Deposited Data

>  <Strongest basic pKa>
5.89

>  <deltapKa>
-0.3937221523378378

>  <Strongest basic pKa_Taut>
5.89

>  <deltapKa_TAut>
-0.3937221523378378

$$$$

  Mrv1920 03272013312D          

 23 25  0  0  0  0            999 V2000
   -1.4289   -2.4750    0.0000 C   0  0  0  0  0  0  0  0  0  0  0  0
   -0.7145   -2.0625    0.0000 O   0  0  0  0  0  0  0  0  0  0  0  0
    0.0000   -2.4750    0.0000 C   0  0  0  0  0  0  0  0  0  0  0  0
    0.7145   -2.0625    0.0000 C   0  0  0  0  0  0  0  0  0  0  0  0
    1.4289   -2.4750    0.0000 O   0  0  0  0  0  0  0  0  0  0  0  0
    2.1434   -2.0625    0.0000 C   0  0  0  0  0  0  0  0  0  0  0  0
    2.1434   -1.2375    0.0000 N   0  0  0  0  0  0  0  0  0  0  0  0
    2.8579   -0.8250    0.0000 C   0  0  0  0  0  0  0  0  0  0  0  0
    2.8579    0.0000    0.0000 N   0  0  0  0  0  0  0  0  0  0  0  0
    3.5724   -1.2375    0.0000 C   0  0  0  0  0  0  0  0  0  0  0  0
    4.3570   -0.9826    0.0000 N   0  0  0  0  0  0  0  0  0  0  0  0
    4.8419   -1.6500    0.0000 C   0  0  0  0  0  0  0  0  0  0  0  0
    5.6669   -1.6500    0.0000 O   0  0  0  0  0  0  0  0  0  0  0  0
    4.3570   -2.3174    0.0000 N   0  0  0  0  0  0  0  0  0  0  0  0
    4.6119   -3.1021    0.0000 C   0  0  0  0  0  0  0  0  0  0  0  0
    5.4189   -3.2736    0.0000 C   0  0  0  0  0  0  0  0  0  0  0  0
    5.9709   -2.6605    0.0000 C   0  0  0  0  0  0  0  0  0  0  0  0
    6.7779   -2.8320    0.0000 C   0  0  0  0  0  0  0  0  0  0  0  0
    7.0328   -3.6166    0.0000 C   0  0  0  0  0  0  0  0  0  0  0  0
    6.4808   -4.2297    0.0000 C   0  0  0  0  0  0  0  0  0  0  0  0
    5.6738   -4.0582    0.0000 C   0  0  0  0  0  0  0  0  0  0  0  0
    3.5724   -2.0625    0.0000 C   0  0  0  0  0  0  0  0  0  0  0  0
    2.8579   -2.4750    0.0000 N   0  0  0  0  0  0  0  0  0  0  0  0
  1  2  1  0  0  0  0
  2  3  1  0  0  0  0
  3  4  1  0  0  0  0
  4  5  1  0  0  0  0
  5  6  1  0  0  0  0
  6  7  2  0  0  0  0
  7  8  1  0  0  0  0
  8  9  1  0  0  0  0
  8 10  2  0  0  0  0
 10 11  1  0  0  0  0
 11 12  1  0  0  0  0
 12 13  2  0  0  0  0
 12 14  1  0  0  0  0
 14 15  1  0  0  0  0
 15 16  1  0  0  0  0
 16 17  2  0  0  0  0
 17 18  1  0  0  0  0
 18 19  2  0  0  0  0
 19 20  1  0  0  0  0
 20 21  2  0  0  0  0
 16 21  1  0  0  0  0
 14 22  1  0  0  0  0
 10 22  1  0  0  0  0
 22 23  2  0  0  0  0
  6 23  1  0  0  0  0
M  END
>  <StandardizerResult>
Tautomerize


>  <CdId>
89

>  <Mol Weight>
315.33

>  <Formula>
C15H17N5O3

>  <Molecule ChEMBL ID>
CHEMBL210884

>  <Molecule Max Phase>
0

>  <Molecular Weight>
315.33

>  <#RO5 Violations>
0

>  <AlogP>
0.78

>  <Compound Key>
2289

>  <Standard Type>
pKa_B1

>  <Standard Value>
2.4

>  <Comment>
'B1 Functional Group: 9H-purin-8-ol, 6-amino-; Ionisation Formula: A1B1 (Functional Group: the part of the molecule the pKa refers to; Ionisation formula: AxBy where 'A' refers to acidic centers within the molecule that are appreciably ionised at a pH <= 11 and 'x' equals 0, 1 or 2; and 'B' refers to basic centers within the molecule that are appreciably ionised at a pH >= 2 and 'y' equals 0, 1, 2 or 3).'

>  <Potential Duplicate>
false

>  <Assay ChEMBL ID>
CHEMBL3301362

>  <Assay Description>
ASTRAZENECA: Most basic pKa value (pKa B1) determined by absorption and potentiometric titration using standard methodology from Sirius Analytical. Experimental range Bases: >= 2.

>  <Assay Type>
P

>  <BAO Format ID>
BAO_0000100

>  <BAO Label>
small-molecule physicochemical format

>  <Target ChEMBL ID>
CHEMBL2362975

>  <Target Name>
No relevant target

>  <Target Type>
NO TARGET

>  <Document ChEMBL ID>
CHEMBL3301361

>  <Source ID>
27

>  <Source Description>
AstraZeneca Deposited Data

>  <Strongest basic pKa>
2.79

>  <deltapKa>
-0.39335743644482335

>  <Strongest basic pKa_Taut>
2.79

>  <deltapKa_TAut>
-0.39335743644482335

$$$$

  Mrv1920 03272013312D          

 34 37  0  0  0  0            999 V2000
    7.1447   -2.4750    0.0000 O   0  0  0  0  0  0  0  0  0  0  0  0
    7.8592   -2.0625    0.0000 C   0  0  0  0  0  0  0  0  0  0  0  0
    8.5737   -2.4750    0.0000 N   0  0  0  0  0  0  0  0  0  0  0  0
    8.5737   -3.3000    0.0000 S   0  0  0  0  0  0  0  0  0  0  0  0
    9.3987   -3.3000    0.0000 O   0  0  0  0  0  0  0  0  0  0  0  0
    7.7487   -3.3000    0.0000 O   0  0  0  0  0  0  0  0  0  0  0  0
    8.5737   -4.1250    0.0000 C   0  0  0  0  0  0  0  0  0  0  0  0
    9.2881   -4.5375    0.0000 C   0  0  0  0  0  0  0  0  0  0  0  0
    9.2881   -5.3625    0.0000 C   0  0  0  0  0  0  0  0  0  0  0  0
    8.5737   -5.7750    0.0000 C   0  0  0  0  0  0  0  0  0  0  0  0
    8.5737   -6.6000    0.0000 F   0  0  0  0  0  0  0  0  0  0  0  0
    7.8592   -5.3625    0.0000 C   0  0  0  0  0  0  0  0  0  0  0  0
    7.8592   -4.5375    0.0000 C   0  0  0  0  0  0  0  0  0  0  0  0
    7.8592   -1.2375    0.0000 N   0  0  0  0  0  0  0  0  0  0  0  0
    7.1447   -0.8250    0.0000 C   0  0  0  0  0  0  0  0  0  0  0  0
    7.1447    0.0000    0.0000 C   0  0  0  0  0  0  0  0  0  0  0  0
    7.8592    0.4125    0.0000 C   0  0  0  0  0  0  0  0  0  0  0  0
    7.8592    1.2375    0.0000 N   0  0  0  0  0  0  0  0  0  0  0  0
    7.1447    1.6500    0.0000 C   0  0  0  0  0  0  0  0  0  0  0  0
    7.1447    2.4750    0.0000 C   0  0  0  0  0  0  0  0  0  0  0  0
    7.8592    2.8875    0.0000 C   0  0  0  0  0  0  0  0  0  0  0  0
    7.8592    3.7125    0.0000 O   0  0  0  0  0  0  0  0  0  0  0  0
    8.5737    4.1250    0.0000 C   0  0  0  0  0  0  0  0  0  0  0  0
    8.5737    4.9500    0.0000 C   0  0  0  0  0  0  0  0  0  0  0  0
    9.2881    5.3625    0.0000 C   0  0  0  0  0  0  0  0  0  0  0  0
   10.0026    4.9500    0.0000 C   0  0  0  0  0  0  0  0  0  0  0  0
   10.7171    5.3625    0.0000 Cl  0  0  0  0  0  0  0  0  0  0  0  0
   10.0026    4.1250    0.0000 C   0  0  0  0  0  0  0  0  0  0  0  0
   10.7171    3.7125    0.0000 Cl  0  0  0  0  0  0  0  0  0  0  0  0
    9.2881    3.7125    0.0000 C   0  0  0  0  0  0  0  0  0  0  0  0
    8.5737    2.4750    0.0000 C   0  0  0  0  0  0  0  0  0  0  0  0
    8.5737    1.6500    0.0000 C   0  0  0  0  0  0  0  0  0  0  0  0
    8.5737    0.0000    0.0000 C   0  0  0  0  0  0  0  0  0  0  0  0
    8.5737   -0.8250    0.0000 C   0  0  0  0  0  0  0  0  0  0  0  0
  1  2  2  0  0  0  0
  2  3  1  0  0  0  0
  3  4  1  0  0  0  0
  4  5  2  0  0  0  0
  4  6  2  0  0  0  0
  4  7  1  0  0  0  0
  7  8  2  0  0  0  0
  8  9  1  0  0  0  0
  9 10  2  0  0  0  0
 10 11  1  0  0  0  0
 10 12  1  0  0  0  0
 12 13  2  0  0  0  0
  7 13  1  0  0  0  0
  2 14  1  0  0  0  0
 14 15  1  0  0  0  0
 15 16  1  0  0  0  0
 16 17  1  0  0  0  0
 17 18  1  0  0  0  0
 18 19  1  0  0  0  0
 19 20  1  0  0  0  0
 20 21  1  0  0  0  0
 21 22  1  0  0  0  0
 22 23  1  0  0  0  0
 23 24  2  0  0  0  0
 24 25  1  0  0  0  0
 25 26  2  0  0  0  0
 26 27  1  0  0  0  0
 26 28  1  0  0  0  0
 28 29  1  0  0  0  0
 28 30  2  0  0  0  0
 23 30  1  0  0  0  0
 21 31  1  0  0  0  0
 31 32  1  0  0  0  0
 18 32  1  0  0  0  0
 17 33  1  0  0  0  0
 33 34  1  0  0  0  0
 14 34  1  0  0  0  0
M  END
>  <StandardizerResult>
Tautomerize


>  <CdId>
257

>  <Mol Weight>
530.44

>  <Formula>
C23H26Cl2FN3O4S

>  <Molecule ChEMBL ID>
CHEMBL2171034

>  <Molecule Max Phase>
0

>  <Molecular Weight>
530.45

>  <#RO5 Violations>
1

>  <AlogP>
4.54

>  <Compound Key>
1556

>  <Standard Type>
pKa_B1

>  <Standard Value>
8.45

>  <Comment>
'B1 Functional Group: Piperidine; Ionisation Formula: A1B1 (Functional Group: the part of the molecule the pKa refers to; Ionisation formula: AxBy where 'A' refers to acidic centers within the molecule that are appreciably ionised at a pH <= 11 and 'x' equals 0, 1 or 2; and 'B' refers to basic centers within the molecule that are appreciably ionised at a pH >= 2 and 'y' equals 0, 1, 2 or 3).'

>  <Potential Duplicate>
false

>  <Assay ChEMBL ID>
CHEMBL3301362

>  <Assay Description>
ASTRAZENECA: Most basic pKa value (pKa B1) determined by absorption and potentiometric titration using standard methodology from Sirius Analytical. Experimental range Bases: >= 2.

>  <Assay Type>
P

>  <BAO Format ID>
BAO_0000100

>  <BAO Label>
small-molecule physicochemical format

>  <Target ChEMBL ID>
CHEMBL2362975

>  <Target Name>
No relevant target

>  <Target Type>
NO TARGET

>  <Document ChEMBL ID>
CHEMBL3301361

>  <Source ID>
27

>  <Source Description>
AstraZeneca Deposited Data

>  <Strongest basic pKa>
8.84

>  <deltapKa>
-0.39124990589963105

>  <Strongest basic pKa_Taut>
8.84

>  <deltapKa_TAut>
-0.39124990589963105

$$$$

  Mrv1920 03272013312D          

 33 36  0  0  1  0            999 V2000
    6.4302    1.2375    0.0000 O   0  0  0  0  0  0  0  0  0  0  0  0
    6.4302    2.0625    0.0000 C   0  0  0  0  0  0  0  0  0  0  0  0
    5.7158    2.4750    0.0000 O   0  0  0  0  0  0  0  0  0  0  0  0
    7.1447    2.4750    0.0000 C   0  0  2  0  0  0  0  0  0  0  0  0
    7.8592    2.0625    0.0000 C   0  0  0  0  0  0  0  0  0  0  0  0
    7.8592    1.2375    0.0000 C   0  0  0  0  0  0  0  0  0  0  0  0
    8.5737    0.8250    0.0000 C   0  0  0  0  0  0  0  0  0  0  0  0
    8.5737    0.0000    0.0000 C   0  0  0  0  0  0  0  0  0  0  0  0
    7.8592   -0.4125    0.0000 C   0  0  0  0  0  0  0  0  0  0  0  0
    7.1447    0.0000    0.0000 C   0  0  0  0  0  0  0  0  0  0  0  0
    7.1447    0.8250    0.0000 C   0  0  0  0  0  0  0  0  0  0  0  0
    7.1447    3.3000    0.0000 N   0  0  0  0  0  0  0  0  0  0  0  0
    6.4302    3.7125    0.0000 C   0  0  0  0  0  0  0  0  0  0  0  0
    6.4302    4.5375    0.0000 C   0  0  0  0  0  0  0  0  0  0  0  0
    7.1447    4.9500    0.0000 C   0  0  0  0  0  0  0  0  0  0  0  0
    7.1447    5.7750    0.0000 C   0  0  0  0  0  0  0  0  0  0  0  0
    7.8592    6.1875    0.0000 N   0  0  0  0  0  0  0  0  0  0  0  0
    7.8592    7.0125    0.0000 C   0  0  0  0  0  0  0  0  0  0  0  0
    8.5737    7.4250    0.0000 C   0  0  0  0  0  0  0  0  0  0  0  0
    9.2881    7.0125    0.0000 C   0  0  0  0  0  0  0  0  0  0  0  0
   10.0026    7.4250    0.0000 O   0  0  0  0  0  0  0  0  0  0  0  0
   10.7171    7.0125    0.0000 C   0  0  0  0  0  0  0  0  0  0  0  0
   11.4315    7.4250    0.0000 C   0  0  0  0  0  0  0  0  0  0  0  0
   12.1460    7.0125    0.0000 C   0  0  0  0  0  0  0  0  0  0  0  0
   12.1460    6.1875    0.0000 C   0  0  0  0  0  0  0  0  0  0  0  0
   12.8605    5.7750    0.0000 Cl  0  0  0  0  0  0  0  0  0  0  0  0
   11.4315    5.7750    0.0000 C   0  0  0  0  0  0  0  0  0  0  0  0
   11.4315    4.9500    0.0000 Cl  0  0  0  0  0  0  0  0  0  0  0  0
   10.7171    6.1875    0.0000 C   0  0  0  0  0  0  0  0  0  0  0  0
    9.2881    6.1875    0.0000 C   0  0  0  0  0  0  0  0  0  0  0  0
    8.5737    5.7750    0.0000 C   0  0  0  0  0  0  0  0  0  0  0  0
    7.8592    4.5375    0.0000 C   0  0  0  0  0  0  0  0  0  0  0  0
    7.8592    3.7125    0.0000 C   0  0  0  0  0  0  0  0  0  0  0  0
  1  2  2  0  0  0  0
  2  3  1  0  0  0  0
  4  2  1  1  0  0  0
  4  5  1  0  0  0  0
  5  6  1  0  0  0  0
  6  7  2  0  0  0  0
  7  8  1  0  0  0  0
  8  9  2  0  0  0  0
  9 10  1  0  0  0  0
 10 11  2  0  0  0  0
  6 11  1  0  0  0  0
  4 12  1  0  0  0  0
 12 13  1  0  0  0  0
 13 14  1  0  0  0  0
 14 15  1  0  0  0  0
 15 16  1  0  0  0  0
 16 17  1  0  0  0  0
 17 18  1  0  0  0  0
 18 19  1  0  0  0  0
 19 20  1  0  0  0  0
 20 21  1  0  0  0  0
 21 22  1  0  0  0  0
 22 23  2  0  0  0  0
 23 24  1  0  0  0  0
 24 25  2  0  0  0  0
 25 26  1  0  0  0  0
 25 27  1  0  0  0  0
 27 28  1  0  0  0  0
 27 29  2  0  0  0  0
 22 29  1  0  0  0  0
 20 30  1  0  0  0  0
 30 31  1  0  0  0  0
 17 31  1  0  0  0  0
 15 32  1  0  0  0  0
 32 33  1  0  0  0  0
 12 33  1  0  0  0  0
M  END
>  <StandardizerResult>
Tautomerize


>  <CdId>
46

>  <Mol Weight>
491.45

>  <Formula>
C26H32Cl2N2O3

>  <Molecule ChEMBL ID>
CHEMBL2158835

>  <Molecule Max Phase>
0

>  <Molecular Weight>
491.46

>  <#RO5 Violations>
1

>  <AlogP>
5.24

>  <Compound Key>
2410

>  <Standard Type>
pKa_B1

>  <Standard Value>
9.25

>  <Comment>
'B1 Functional Group: Piperidine; Ionisation Formula: A1B2 (Functional Group: the part of the molecule the pKa refers to; Ionisation formula: AxBy where 'A' refers to acidic centers within the molecule that are appreciably ionised at a pH <= 11 and 'x' equals 0, 1 or 2; and 'B' refers to basic centers within the molecule that are appreciably ionised at a pH >= 2 and 'y' equals 0, 1, 2 or 3).'

>  <Potential Duplicate>
false

>  <Assay ChEMBL ID>
CHEMBL3301362

>  <Assay Description>
ASTRAZENECA: Most basic pKa value (pKa B1) determined by absorption and potentiometric titration using standard methodology from Sirius Analytical. Experimental range Bases: >= 2.

>  <Assay Type>
P

>  <BAO Format ID>
BAO_0000100

>  <BAO Label>
small-molecule physicochemical format

>  <Target ChEMBL ID>
CHEMBL2362975

>  <Target Name>
No relevant target

>  <Target Type>
NO TARGET

>  <Document ChEMBL ID>
CHEMBL3301361

>  <Source ID>
27

>  <Source Description>
AstraZeneca Deposited Data

>  <Strongest basic pKa>
9.63

>  <deltapKa>
-0.38454169006755023

>  <Strongest basic pKa_Taut>
9.63

>  <deltapKa_TAut>
-0.38454169006755023

$$$$

  Mrv1920 03272013312D          

 15 16  0  0  0  0            999 V2000
    1.4289   -1.6500    0.0000 C   0  0  0  0  0  0  0  0  0  0  0  0
    1.4289   -2.4750    0.0000 C   0  0  0  0  0  0  0  0  0  0  0  0
    2.1434   -2.8875    0.0000 C   0  0  0  0  0  0  0  0  0  0  0  0
    2.1434   -3.7125    0.0000 C   0  0  0  0  0  0  0  0  0  0  0  0
    1.4289   -4.1250    0.0000 N   0  0  0  0  0  0  0  0  0  0  0  0
    0.7145   -3.7125    0.0000 C   0  0  0  0  0  0  0  0  0  0  0  0
    0.0000   -4.1250    0.0000 N   0  0  0  0  0  0  0  0  0  0  0  0
    0.0000   -4.9500    0.0000 C   0  0  0  0  0  0  0  0  0  0  0  0
   -0.7145   -5.3625    0.0000 C   0  0  0  0  0  0  0  0  0  0  0  0
   -0.7145   -6.1875    0.0000 C   0  0  0  0  0  0  0  0  0  0  0  0
   -1.4289   -6.6000    0.0000 C   0  0  0  0  0  0  0  0  0  0  0  0
   -2.1434   -6.1875    0.0000 C   0  0  0  0  0  0  0  0  0  0  0  0
   -2.1434   -5.3625    0.0000 C   0  0  0  0  0  0  0  0  0  0  0  0
   -1.4289   -4.9500    0.0000 C   0  0  0  0  0  0  0  0  0  0  0  0
    0.7145   -2.8875    0.0000 C   0  0  0  0  0  0  0  0  0  0  0  0
  1  2  1  0  0  0  0
  2  3  2  0  0  0  0
  3  4  1  0  0  0  0
  4  5  2  0  0  0  0
  5  6  1  0  0  0  0
  6  7  1  0  0  0  0
  7  8  1  0  0  0  0
  8  9  1  0  0  0  0
  9 10  2  0  0  0  0
 10 11  1  0  0  0  0
 11 12  2  0  0  0  0
 12 13  1  0  0  0  0
 13 14  2  0  0  0  0
  9 14  1  0  0  0  0
  6 15  2  0  0  0  0
  2 15  1  0  0  0  0
M  END
>  <StandardizerResult>
Tautomerize


>  <CdId>
69

>  <Mol Weight>
198.27

>  <Formula>
C13H14N2

>  <Molecule ChEMBL ID>
CHEMBL1762482

>  <Molecule Max Phase>
0

>  <Molecular Weight>
198.27

>  <#RO5 Violations>
0

>  <AlogP>
3.0

>  <Compound Key>
912

>  <Standard Type>
pKa_B1

>  <Standard Value>
7.0

>  <Comment>
'B1 Functional Group: 2-Pyridinamine; Ionisation Formula: A0B1 (Functional Group: the part of the molecule the pKa refers to; Ionisation formula: AxBy where 'A' refers to acidic centers within the molecule that are appreciably ionised at a pH <= 11 and 'x' equals 0, 1 or 2; and 'B' refers to basic centers within the molecule that are appreciably ionised at a pH >= 2 and 'y' equals 0, 1, 2 or 3).'

>  <Potential Duplicate>
false

>  <Assay ChEMBL ID>
CHEMBL3301362

>  <Assay Description>
ASTRAZENECA: Most basic pKa value (pKa B1) determined by absorption and potentiometric titration using standard methodology from Sirius Analytical. Experimental range Bases: >= 2.

>  <Assay Type>
P

>  <BAO Format ID>
BAO_0000100

>  <BAO Label>
small-molecule physicochemical format

>  <Target ChEMBL ID>
CHEMBL2362975

>  <Target Name>
No relevant target

>  <Target Type>
NO TARGET

>  <Document ChEMBL ID>
CHEMBL3301361

>  <Source ID>
27

>  <Source Description>
AstraZeneca Deposited Data

>  <Strongest basic pKa>
7.38

>  <deltapKa>
-0.3791588841093665

>  <Strongest basic pKa_Taut>
7.38

>  <deltapKa_TAut>
-0.3791588841093665

$$$$

  Mrv1920 03272013312D          

 39 43  0  0  0  0            999 V2000
    0.4917   -7.1536    0.0000 C   0  0  0  0  0  0  0  0  0  0  0  0
    1.1048   -6.6016    0.0000 C   0  0  0  0  0  0  0  0  0  0  0  0
    0.9333   -5.7946    0.0000 C   0  0  0  0  0  0  0  0  0  0  0  0
    1.5464   -5.2426    0.0000 C   0  0  0  0  0  0  0  0  0  0  0  0
    2.3310   -5.4975    0.0000 C   0  0  0  0  0  0  0  0  0  0  0  0
    2.9441   -4.9455    0.0000 N   0  0  0  0  0  0  0  0  0  0  0  0
    3.7511   -5.1170    0.0000 N   0  0  0  0  0  0  0  0  0  0  0  0
    4.1636   -4.4025    0.0000 C   0  0  0  0  0  0  0  0  0  0  0  0
    4.9841   -4.3163    0.0000 C   0  0  0  0  0  0  0  0  0  0  0  0
    5.8046   -4.2301    0.0000 C   0  0  0  0  0  0  0  0  0  0  0  0
    5.0703   -5.1368    0.0000 C   0  0  0  0  0  0  0  0  0  0  0  0
    4.8978   -3.4958    0.0000 C   0  0  0  0  0  0  0  0  0  0  0  0
    3.6116   -3.7894    0.0000 C   0  0  0  0  0  0  0  0  0  0  0  0
    2.8579   -4.1250    0.0000 C   0  0  0  0  0  0  0  0  0  0  0  0
    2.1434   -3.7125    0.0000 N   0  0  0  0  0  0  0  0  0  0  0  0
    2.1434   -2.8875    0.0000 C   0  0  0  0  0  0  0  0  0  0  0  0
    2.8579   -2.4750    0.0000 O   0  0  0  0  0  0  0  0  0  0  0  0
    1.4289   -2.4750    0.0000 N   0  0  0  0  0  0  0  0  0  0  0  0
    1.4289   -1.6500    0.0000 C   0  0  0  0  0  0  0  0  0  0  0  0
    0.7145   -1.2375    0.0000 C   0  0  0  0  0  0  0  0  0  0  0  0
    0.7145   -0.4125    0.0000 C   0  0  0  0  0  0  0  0  0  0  0  0
    1.4289    0.0000    0.0000 C   0  0  0  0  0  0  0  0  0  0  0  0
    1.4289    0.8250    0.0000 O   0  0  0  0  0  0  0  0  0  0  0  0
    2.1434    1.2375    0.0000 C   0  0  0  0  0  0  0  0  0  0  0  0
    2.1434    2.0625    0.0000 C   0  0  0  0  0  0  0  0  0  0  0  0
    1.4289    2.4750    0.0000 N   0  0  0  0  0  0  0  0  0  0  0  0
    0.7145    2.0625    0.0000 C   0  0  0  0  0  0  0  0  0  0  0  0
    0.0000    2.4750    0.0000 C   0  0  0  0  0  0  0  0  0  0  0  0
    0.0000    3.3000    0.0000 O   0  0  0  0  0  0  0  0  0  0  0  0
    0.7145    3.7125    0.0000 C   0  0  0  0  0  0  0  0  0  0  0  0
    1.4289    3.3000    0.0000 C   0  0  0  0  0  0  0  0  0  0  0  0
    2.1434   -0.4125    0.0000 C   0  0  0  0  0  0  0  0  0  0  0  0
    2.8579    0.0000    0.0000 C   0  0  0  0  0  0  0  0  0  0  0  0
    3.5724   -0.4125    0.0000 C   0  0  0  0  0  0  0  0  0  0  0  0
    3.5724   -1.2375    0.0000 C   0  0  0  0  0  0  0  0  0  0  0  0
    2.8579   -1.6500    0.0000 C   0  0  0  0  0  0  0  0  0  0  0  0
    2.1434   -1.2375    0.0000 C   0  0  0  0  0  0  0  0  0  0  0  0
    2.5026   -6.3045    0.0000 C   0  0  0  0  0  0  0  0  0  0  0  0
    1.8895   -6.8565    0.0000 C   0  0  0  0  0  0  0  0  0  0  0  0
  1  2  1  0  0  0  0
  2  3  2  0  0  0  0
  3  4  1  0  0  0  0
  4  5  2  0  0  0  0
  5  6  1  0  0  0  0
  6  7  1  0  0  0  0
  7  8  2  0  0  0  0
  8  9  1  0  0  0  0
  9 10  1  0  0  0  0
  9 11  1  0  0  0  0
  9 12  1  0  0  0  0
  8 13  1  0  0  0  0
 13 14  2  0  0  0  0
  6 14  1  0  0  0  0
 14 15  1  0  0  0  0
 15 16  1  0  0  0  0
 16 17  2  0  0  0  0
 16 18  1  0  0  0  0
 18 19  1  0  0  0  0
 19 20  2  0  0  0  0
 20 21  1  0  0  0  0
 21 22  2  0  0  0  0
 22 23  1  0  0  0  0
 23 24  1  0  0  0  0
 24 25  1  0  0  0  0
 25 26  1  0  0  0  0
 26 27  1  0  0  0  0
 27 28  1  0  0  0  0
 28 29  1  0  0  0  0
 29 30  1  0  0  0  0
 30 31  1  0  0  0  0
 26 31  1  0  0  0  0
 22 32  1  0  0  0  0
 32 33  2  0  0  0  0
 33 34  1  0  0  0  0
 34 35  2  0  0  0  0
 35 36  1  0  0  0  0
 36 37  2  0  0  0  0
 19 37  1  0  0  0  0
 32 37  1  0  0  0  0
  5 38  1  0  0  0  0
 38 39  2  0  0  0  0
  2 39  1  0  0  0  0
M  END
>  <StandardizerResult>
Tautomerize


>  <CdId>
234

>  <Mol Weight>
527.67

>  <Formula>
C31H37N5O3

>  <Molecule ChEMBL ID>
CHEMBL103667

>  <Molecule Name>
DORAMAPIMOD

>  <Molecule Max Phase>
2

>  <Molecular Weight>
527.67

>  <#RO5 Violations>
2

>  <AlogP>
5.99

>  <Compound Key>
2439

>  <Standard Type>
pKa_B1

>  <Standard Value>
6.41

>  <Comment>
'B1 Functional Group: Morpholine; Ionisation Formula: A0B1 (Functional Group: the part of the molecule the pKa refers to; Ionisation formula: AxBy where 'A' refers to acidic centers within the molecule that are appreciably ionised at a pH <= 11 and 'x' equals 0, 1 or 2; and 'B' refers to basic centers within the molecule that are appreciably ionised at a pH >= 2 and 'y' equals 0, 1, 2 or 3).'

>  <Potential Duplicate>
false

>  <Assay ChEMBL ID>
CHEMBL3301362

>  <Assay Description>
ASTRAZENECA: Most basic pKa value (pKa B1) determined by absorption and potentiometric titration using standard methodology from Sirius Analytical. Experimental range Bases: >= 2.

>  <Assay Type>
P

>  <BAO Format ID>
BAO_0000100

>  <BAO Label>
small-molecule physicochemical format

>  <Target ChEMBL ID>
CHEMBL2362975

>  <Target Name>
No relevant target

>  <Target Type>
NO TARGET

>  <Document ChEMBL ID>
CHEMBL3301361

>  <Source ID>
27

>  <Source Description>
AstraZeneca Deposited Data

>  <Strongest basic pKa>
6.78

>  <deltapKa>
-0.372266725743871

>  <Strongest basic pKa_Taut>
6.78

>  <deltapKa_TAut>
-0.372266725743871

$$$$

  Mrv1920 03272013312D          

 21 24  0  0  1  0            999 V2000
    5.3571   -0.5828    0.0000 C   0  0  0  0  0  0  0  0  0  0  0  0
    4.5505   -0.4095    0.0000 O   0  0  0  0  0  0  0  0  0  0  0  0
    4.2973    0.3757    0.0000 C   0  0  0  0  0  0  0  0  0  0  0  0
    4.8506    0.9876    0.0000 C   0  0  0  0  0  0  0  0  0  0  0  0
    4.5974    1.7727    0.0000 C   0  0  0  0  0  0  0  0  0  0  0  0
    3.7532    1.9780    0.0000 C   0  0  0  0  0  0  0  0  0  0  0  0
    3.2374    1.3341    0.0000 C   0  0  0  0  0  0  0  0  0  0  0  0
    3.4907    0.5490    0.0000 C   0  0  0  0  0  0  0  0  0  0  0  0
    2.8222    0.0655    0.0000 O   0  0  0  0  0  0  0  0  0  0  0  0
    2.1558    0.5519    0.0000 C   0  0  1  0  0  0  0  0  0  0  0  0
    1.3484    0.3821    0.0000 C   0  0  0  0  0  0  0  0  0  0  0  0
    0.7978    0.9964    0.0000 C   0  0  1  0  0  0  0  0  0  0  0  0
   -0.0096    0.8267    0.0000 O   0  0  0  0  0  0  0  0  0  0  0  0
    1.0544    1.7805    0.0000 C   0  0  0  0  0  0  0  0  0  0  0  0
    1.8618    1.9502    0.0000 C   0  0  0  0  0  0  0  0  0  0  0  0
    2.4124    1.3359    0.0000 C   0  0  1  0  0  0  0  0  0  0  0  0
    2.4157    2.2252    0.0000 C   0  0  0  0  0  0  0  0  0  0  0  0
    2.2186    3.0453    0.0000 C   0  0  0  0  0  0  0  0  0  0  0  0
    3.0045    3.3335    0.0000 N   0  0  0  0  0  0  0  0  0  0  0  0
    3.1536    4.1450    0.0000 C   0  0  0  0  0  0  0  0  0  0  0  0
    3.6369    2.7846    0.0000 C   0  0  0  0  0  0  0  0  0  0  0  0
  1  2  1  0  0  0  0
  2  3  1  0  0  0  0
  3  4  2  0  0  0  0
  4  5  1  0  0  0  0
  5  6  2  0  0  0  0
  6  7  1  0  0  0  0
  7  8  2  0  0  0  0
  3  8  1  0  0  0  0
  8  9  1  0  0  0  0
 10  9  1  1  0  0  0
 10 11  1  0  0  0  0
 12 11  1  0  0  0  0
 12 13  1  1  0  0  0
 12 14  1  0  0  0  0
 14 15  2  0  0  0  0
 16 15  1  0  0  0  0
 16  7  1  1  0  0  0
 10 16  1  0  0  0  0
 16 17  1  0  0  0  0
 17 18  1  0  0  0  0
 18 19  1  0  0  0  0
 19 20  1  0  0  0  0
 19 21  1  0  0  0  0
  6 21  1  0  0  0  0
M  END
>  <StandardizerResult>
Tautomerize


>  <CdId>
147

>  <Mol Weight>
287.36

>  <Formula>
C17H21NO3

>  <Molecule ChEMBL ID>
CHEMBL659

>  <Molecule Name>
GALANTAMINE

>  <Molecule Max Phase>
4

>  <Molecular Weight>
287.36

>  <#RO5 Violations>
0

>  <AlogP>
1.85

>  <Compound Key>
GALANTAMINE

>  <Standard Type>
pKa_B1

>  <Standard Value>
8.21

>  <Comment>
'B1 Functional Group: Tertiary amine; Ionisation Formula: A0B1 (Functional Group: the part of the molecule the pKa refers to; Ionisation formula: AxBy where 'A' refers to acidic centers within the molecule that are appreciably ionised at a pH <= 11 and 'x' equals 0, 1 or 2; and 'B' refers to basic centers within the molecule that are appreciably ionised at a pH >= 2 and 'y' equals 0, 1, 2 or 3).'

>  <Potential Duplicate>
false

>  <Assay ChEMBL ID>
CHEMBL3301362

>  <Assay Description>
ASTRAZENECA: Most basic pKa value (pKa B1) determined by absorption and potentiometric titration using standard methodology from Sirius Analytical. Experimental range Bases: >= 2.

>  <Assay Type>
P

>  <BAO Format ID>
BAO_0000100

>  <BAO Label>
small-molecule physicochemical format

>  <Target ChEMBL ID>
CHEMBL2362975

>  <Target Name>
No relevant target

>  <Target Type>
NO TARGET

>  <Document ChEMBL ID>
CHEMBL3301361

>  <Source ID>
27

>  <Source Description>
AstraZeneca Deposited Data

>  <Strongest basic pKa>
8.58

>  <deltapKa>
-0.36875742826793

>  <Strongest basic pKa_Taut>
8.58

>  <deltapKa_TAut>
-0.36875742826793

$$$$

  Mrv1920 03272013312D          

 28 32  0  0  0  0            999 V2000
    0.8518   -4.1335    0.0000 O   0  0  0  0  0  0  0  0  0  0  0  0
    0.1373   -3.7210    0.0000 C   0  0  0  0  0  0  0  0  0  0  0  0
    0.1373   -2.8960    0.0000 N   0  0  0  0  0  0  0  0  0  0  0  0
    0.8517   -2.4835    0.0000 C   0  0  0  0  0  0  0  0  0  0  0  0
    0.8517   -1.6585    0.0000 C   0  0  0  0  0  0  0  0  0  0  0  0
    0.1163   -2.0322    0.0000 C   0  0  0  0  0  0  0  0  0  0  0  0
    0.5657   -1.2419    0.0000 C   0  0  0  0  0  0  0  0  0  0  0  0
    0.5657   -0.4945    0.0000 C   0  0  0  0  0  0  0  0  0  0  0  0
    1.3012   -0.1208    0.0000 C   0  0  0  0  0  0  0  0  0  0  0  0
    2.0368   -0.4945    0.0000 C   0  0  0  0  0  0  0  0  0  0  0  0
    2.0368   -1.2419    0.0000 C   0  0  0  0  0  0  0  0  0  0  0  0
    1.3012   -1.6156    0.0000 C   0  0  0  0  0  0  0  0  0  0  0  0
    1.5873   -2.0322    0.0000 C   0  0  0  0  0  0  0  0  0  0  0  0
    0.8517   -0.9111    0.0000 C   0  0  0  0  0  0  0  0  0  0  0  0
   -0.5771   -4.1336    0.0000 C   0  0  0  0  0  0  0  0  0  0  0  0
   -0.5771   -4.9586    0.0000 C   0  0  0  0  0  0  0  0  0  0  0  0
   -1.2915   -5.3711    0.0000 C   0  0  0  0  0  0  0  0  0  0  0  0
   -1.2915   -6.1961    0.0000 C   0  0  0  0  0  0  0  0  0  0  0  0
   -2.0059   -6.6087    0.0000 N   0  0  0  0  0  0  0  0  0  0  0  0
   -2.0059   -7.4337    0.0000 C   0  0  0  0  0  0  0  0  0  0  0  0
   -2.7203   -7.8462    0.0000 C   0  0  0  0  0  0  0  0  0  0  0  0
   -3.4348   -7.4337    0.0000 N   0  0  0  0  0  0  0  0  0  0  0  0
   -3.4349   -6.6087    0.0000 C   0  0  0  0  0  0  0  0  0  0  0  0
   -2.7204   -6.1962    0.0000 C   0  0  0  0  0  0  0  0  0  0  0  0
   -2.0060   -4.9587    0.0000 C   0  0  0  0  0  0  0  0  0  0  0  0
   -2.0060   -4.1337    0.0000 C   0  0  0  0  0  0  0  0  0  0  0  0
   -1.2916   -3.7211    0.0000 C   0  0  0  0  0  0  0  0  0  0  0  0
   -1.2916   -2.8961    0.0000 Cl  0  0  0  0  0  0  0  0  0  0  0  0
  1  2  2  0  0  0  0
  2  3  1  0  0  0  0
  3  4  1  0  0  0  0
  4  5  1  0  0  0  0
  5  6  1  0  0  0  0
  6  7  1  0  0  0  0
  9 14  1  0  0  0  0
  8  9  1  0  0  0  0
  9 10  1  0  0  0  0
  5 13  1  0  0  0  0
 11 12  1  0  0  0  0
  7 12  1  0  0  0  0
 11 13  1  0  0  0  0
 10 11  1  0  0  0  0
  7  8  1  0  0  0  0
  5 14  1  0  0  0  0
  2 15  1  0  0  0  0
 15 16  2  0  0  0  0
 16 17  1  0  0  0  0
 17 18  1  0  0  0  0
 18 19  1  0  0  0  0
 19 20  1  0  0  0  0
 20 21  1  0  0  0  0
 21 22  1  0  0  0  0
 22 23  1  0  0  0  0
 23 24  1  0  0  0  0
 19 24  1  0  0  0  0
 17 25  2  0  0  0  0
 25 26  1  0  0  0  0
 26 27  2  0  0  0  0
 15 27  1  0  0  0  0
 27 28  1  0  0  0  0
M  END
>  <StandardizerResult>
Tautomerize


>  <CdId>
7

>  <Mol Weight>
401.98

>  <Formula>
C23H32ClN3O

>  <Molecule ChEMBL ID>
CHEMBL235789

>  <Molecule Max Phase>
0

>  <Molecular Weight>
401.98

>  <#RO5 Violations>
0

>  <AlogP>
3.69

>  <Compound Key>
1583

>  <Standard Type>
pKa_B1

>  <Standard Value>
8.85

>  <Comment>
'B1 Functional Group: Piperazine; Ionisation Formula: A0B2 (Functional Group: the part of the molecule the pKa refers to; Ionisation formula: AxBy where 'A' refers to acidic centers within the molecule that are appreciably ionised at a pH <= 11 and 'x' equals 0, 1 or 2; and 'B' refers to basic centers within the molecule that are appreciably ionised at a pH >= 2 and 'y' equals 0, 1, 2 or 3).'

>  <Potential Duplicate>
false

>  <Assay ChEMBL ID>
CHEMBL3301362

>  <Assay Description>
ASTRAZENECA: Most basic pKa value (pKa B1) determined by absorption and potentiometric titration using standard methodology from Sirius Analytical. Experimental range Bases: >= 2.

>  <Assay Type>
P

>  <BAO Format ID>
BAO_0000100

>  <BAO Label>
small-molecule physicochemical format

>  <Target ChEMBL ID>
CHEMBL2362975

>  <Target Name>
No relevant target

>  <Target Type>
NO TARGET

>  <Document ChEMBL ID>
CHEMBL3301361

>  <Source ID>
27

>  <Source Description>
AstraZeneca Deposited Data

>  <Strongest basic pKa>
9.21

>  <deltapKa>
-0.3629739482790644

>  <Strongest basic pKa_Taut>
9.21

>  <deltapKa_TAut>
-0.3629739482790644

$$$$

  Mrv1920 03272013312D          

 18 19  0  0  0  0            999 V2000
   -0.7145   -1.2375    0.0000 N   0  0  0  0  0  0  0  0  0  0  0  0
    0.0000   -1.6500    0.0000 C   0  0  0  0  0  0  0  0  0  0  0  0
    0.7145   -1.2375    0.0000 C   0  0  0  0  0  0  0  0  0  0  0  0
    1.4289   -1.6500    0.0000 O   0  0  0  0  0  0  0  0  0  0  0  0
    1.4289   -2.4750    0.0000 C   0  0  0  0  0  0  0  0  0  0  0  0
    2.1434   -2.8875    0.0000 C   0  0  0  0  0  0  0  0  0  0  0  0
    2.1434   -3.7125    0.0000 C   0  0  0  0  0  0  0  0  0  0  0  0
    2.8579   -4.1250    0.0000 Cl  0  0  0  0  0  0  0  0  0  0  0  0
    1.4289   -4.1250    0.0000 C   0  0  0  0  0  0  0  0  0  0  0  0
    0.7145   -3.7125    0.0000 C   0  0  0  0  0  0  0  0  0  0  0  0
    0.7145   -2.8875    0.0000 C   0  0  0  0  0  0  0  0  0  0  0  0
    0.0000   -2.4750    0.0000 Cl  0  0  0  0  0  0  0  0  0  0  0  0
    0.7145   -0.4125    0.0000 C   0  0  0  0  0  0  0  0  0  0  0  0
    0.0000    0.0000    0.0000 C   0  0  0  0  0  0  0  0  0  0  0  0
    0.0000    0.8250    0.0000 C   0  0  0  0  0  0  0  0  0  0  0  0
    0.7145    1.2375    0.0000 C   0  0  0  0  0  0  0  0  0  0  0  0
    1.4289    0.8250    0.0000 C   0  0  0  0  0  0  0  0  0  0  0  0
    1.4289    0.0000    0.0000 C   0  0  0  0  0  0  0  0  0  0  0  0
  1  2  1  0  0  0  0
  2  3  1  0  0  0  0
  3  4  1  0  0  0  0
  4  5  1  0  0  0  0
  5  6  2  0  0  0  0
  6  7  1  0  0  0  0
  7  8  1  0  0  0  0
  7  9  2  0  0  0  0
  9 10  1  0  0  0  0
 10 11  2  0  0  0  0
  5 11  1  0  0  0  0
 11 12  1  0  0  0  0
  3 13  1  0  0  0  0
 13 14  2  0  0  0  0
 14 15  1  0  0  0  0
 15 16  2  0  0  0  0
 16 17  1  0  0  0  0
 17 18  2  0  0  0  0
 13 18  1  0  0  0  0
M  END
>  <StandardizerResult>
Tautomerize


>  <CdId>
249

>  <Mol Weight>
282.16

>  <Formula>
C14H13Cl2NO

>  <Molecule ChEMBL ID>
CHEMBL1762470

>  <Molecule Max Phase>
0

>  <Molecular Weight>
282.17

>  <#RO5 Violations>
0

>  <AlogP>
4.07

>  <Compound Key>
2317

>  <Standard Type>
pKa_B1

>  <Standard Value>
8.5

>  <Comment>
'B1 Functional Group: Primary amine; Ionisation Formula: A0B1 (Functional Group: the part of the molecule the pKa refers to; Ionisation formula: AxBy where 'A' refers to acidic centers within the molecule that are appreciably ionised at a pH <= 11 and 'x' equals 0, 1 or 2; and 'B' refers to basic centers within the molecule that are appreciably ionised at a pH >= 2 and 'y' equals 0, 1, 2 or 3).'

>  <Potential Duplicate>
false

>  <Assay ChEMBL ID>
CHEMBL3301362

>  <Assay Description>
ASTRAZENECA: Most basic pKa value (pKa B1) determined by absorption and potentiometric titration using standard methodology from Sirius Analytical. Experimental range Bases: >= 2.

>  <Assay Type>
P

>  <BAO Format ID>
BAO_0000100

>  <BAO Label>
small-molecule physicochemical format

>  <Target ChEMBL ID>
CHEMBL2362975

>  <Target Name>
No relevant target

>  <Target Type>
NO TARGET

>  <Document ChEMBL ID>
CHEMBL3301361

>  <Source ID>
27

>  <Source Description>
AstraZeneca Deposited Data

>  <Strongest basic pKa>
8.85

>  <deltapKa>
-0.35285478415389626

>  <Strongest basic pKa_Taut>
8.85

>  <deltapKa_TAut>
-0.35285478415389626

$$$$

  Mrv1920 03272013312D          

 33 36  0  0  1  0            999 V2000
    6.4302    1.2375    0.0000 O   0  0  0  0  0  0  0  0  0  0  0  0
    6.4302    2.0625    0.0000 C   0  0  0  0  0  0  0  0  0  0  0  0
    5.7158    2.4750    0.0000 O   0  0  0  0  0  0  0  0  0  0  0  0
    7.1447    2.4750    0.0000 C   0  0  1  0  0  0  0  0  0  0  0  0
    7.8592    2.0625    0.0000 C   0  0  0  0  0  0  0  0  0  0  0  0
    7.8592    1.2375    0.0000 C   0  0  0  0  0  0  0  0  0  0  0  0
    8.5737    0.8250    0.0000 C   0  0  0  0  0  0  0  0  0  0  0  0
    8.5737    0.0000    0.0000 C   0  0  0  0  0  0  0  0  0  0  0  0
    7.8592   -0.4125    0.0000 C   0  0  0  0  0  0  0  0  0  0  0  0
    7.1447    0.0000    0.0000 C   0  0  0  0  0  0  0  0  0  0  0  0
    7.1447    0.8250    0.0000 C   0  0  0  0  0  0  0  0  0  0  0  0
    7.1447    3.3000    0.0000 N   0  0  0  0  0  0  0  0  0  0  0  0
    6.4302    3.7125    0.0000 C   0  0  0  0  0  0  0  0  0  0  0  0
    6.4302    4.5375    0.0000 C   0  0  0  0  0  0  0  0  0  0  0  0
    7.1447    4.9500    0.0000 C   0  0  0  0  0  0  0  0  0  0  0  0
    7.1447    5.7750    0.0000 C   0  0  0  0  0  0  0  0  0  0  0  0
    7.8592    6.1875    0.0000 N   0  0  0  0  0  0  0  0  0  0  0  0
    7.8592    7.0125    0.0000 C   0  0  0  0  0  0  0  0  0  0  0  0
    8.5737    7.4250    0.0000 C   0  0  0  0  0  0  0  0  0  0  0  0
    9.2881    7.0125    0.0000 C   0  0  0  0  0  0  0  0  0  0  0  0
   10.0026    7.4250    0.0000 O   0  0  0  0  0  0  0  0  0  0  0  0
   10.7171    7.0125    0.0000 C   0  0  0  0  0  0  0  0  0  0  0  0
   11.4315    7.4250    0.0000 C   0  0  0  0  0  0  0  0  0  0  0  0
   12.1460    7.0125    0.0000 C   0  0  0  0  0  0  0  0  0  0  0  0
   12.1460    6.1875    0.0000 C   0  0  0  0  0  0  0  0  0  0  0  0
   12.8605    5.7750    0.0000 Cl  0  0  0  0  0  0  0  0  0  0  0  0
   11.4315    5.7750    0.0000 C   0  0  0  0  0  0  0  0  0  0  0  0
   11.4315    4.9500    0.0000 Cl  0  0  0  0  0  0  0  0  0  0  0  0
   10.7171    6.1875    0.0000 C   0  0  0  0  0  0  0  0  0  0  0  0
    9.2881    6.1875    0.0000 C   0  0  0  0  0  0  0  0  0  0  0  0
    8.5737    5.7750    0.0000 C   0  0  0  0  0  0  0  0  0  0  0  0
    7.8592    4.5375    0.0000 C   0  0  0  0  0  0  0  0  0  0  0  0
    7.8592    3.7125    0.0000 C   0  0  0  0  0  0  0  0  0  0  0  0
  1  2  2  0  0  0  0
  2  3  1  0  0  0  0
  4  2  1  6  0  0  0
  4  5  1  0  0  0  0
  5  6  1  0  0  0  0
  6  7  2  0  0  0  0
  7  8  1  0  0  0  0
  8  9  2  0  0  0  0
  9 10  1  0  0  0  0
 10 11  2  0  0  0  0
  6 11  1  0  0  0  0
  4 12  1  0  0  0  0
 12 13  1  0  0  0  0
 13 14  1  0  0  0  0
 14 15  1  0  0  0  0
 15 16  1  0  0  0  0
 16 17  1  0  0  0  0
 17 18  1  0  0  0  0
 18 19  1  0  0  0  0
 19 20  1  0  0  0  0
 20 21  1  0  0  0  0
 21 22  1  0  0  0  0
 22 23  2  0  0  0  0
 23 24  1  0  0  0  0
 24 25  2  0  0  0  0
 25 26  1  0  0  0  0
 25 27  1  0  0  0  0
 27 28  1  0  0  0  0
 27 29  2  0  0  0  0
 22 29  1  0  0  0  0
 20 30  1  0  0  0  0
 30 31  1  0  0  0  0
 17 31  1  0  0  0  0
 15 32  1  0  0  0  0
 32 33  1  0  0  0  0
 12 33  1  0  0  0  0
M  END
>  <StandardizerResult>
Tautomerize


>  <CdId>
84

>  <Mol Weight>
491.45

>  <Formula>
C26H32Cl2N2O3

>  <Molecule ChEMBL ID>
CHEMBL2158836

>  <Molecule Max Phase>
0

>  <Molecular Weight>
491.46

>  <#RO5 Violations>
1

>  <AlogP>
5.24

>  <Compound Key>
2530

>  <Standard Type>
pKa_B1

>  <Standard Value>
9.3

>  <Comment>
'B1 Functional Group: Piperidine; Ionisation Formula: A1B2 (Functional Group: the part of the molecule the pKa refers to; Ionisation formula: AxBy where 'A' refers to acidic centers within the molecule that are appreciably ionised at a pH <= 11 and 'x' equals 0, 1 or 2; and 'B' refers to basic centers within the molecule that are appreciably ionised at a pH >= 2 and 'y' equals 0, 1, 2 or 3).'

>  <Potential Duplicate>
false

>  <Assay ChEMBL ID>
CHEMBL3301362

>  <Assay Description>
ASTRAZENECA: Most basic pKa value (pKa B1) determined by absorption and potentiometric titration using standard methodology from Sirius Analytical. Experimental range Bases: >= 2.

>  <Assay Type>
P

>  <BAO Format ID>
BAO_0000100

>  <BAO Label>
small-molecule physicochemical format

>  <Target ChEMBL ID>
CHEMBL2362975

>  <Target Name>
No relevant target

>  <Target Type>
NO TARGET

>  <Document ChEMBL ID>
CHEMBL3301361

>  <Source ID>
27

>  <Source Description>
AstraZeneca Deposited Data

>  <Strongest basic pKa>
9.63

>  <deltapKa>
-0.3345416900675495

>  <Strongest basic pKa_Taut>
9.63

>  <deltapKa_TAut>
-0.3345416900675495

$$$$

  Mrv1920 03272013312D          

 30 33  0  0  0  0            999 V2000
    0.8518   -4.1335    0.0000 O   0  0  0  0  0  0  0  0  0  0  0  0
    0.1373   -3.7210    0.0000 C   0  0  0  0  0  0  0  0  0  0  0  0
    0.1373   -2.8960    0.0000 N   0  0  0  0  0  0  0  0  0  0  0  0
    0.8517   -2.4835    0.0000 C   0  0  0  0  0  0  0  0  0  0  0  0
    0.8517   -1.6585    0.0000 C   0  0  0  0  0  0  0  0  0  0  0  0
    0.1163   -2.0322    0.0000 C   0  0  0  0  0  0  0  0  0  0  0  0
    0.5657   -1.2419    0.0000 C   0  0  0  0  0  0  0  0  0  0  0  0
    0.5657   -0.4945    0.0000 C   0  0  0  0  0  0  0  0  0  0  0  0
    1.3012   -0.1208    0.0000 C   0  0  0  0  0  0  0  0  0  0  0  0
    2.0368   -0.4945    0.0000 C   0  0  0  0  0  0  0  0  0  0  0  0
    2.0368   -1.2419    0.0000 C   0  0  0  0  0  0  0  0  0  0  0  0
    1.3012   -1.6156    0.0000 C   0  0  0  0  0  0  0  0  0  0  0  0
    1.5873   -2.0322    0.0000 C   0  0  0  0  0  0  0  0  0  0  0  0
    0.8517   -0.9111    0.0000 C   0  0  0  0  0  0  0  0  0  0  0  0
   -0.5771   -4.1336    0.0000 C   0  0  0  0  0  0  0  0  0  0  0  0
   -0.5771   -4.9586    0.0000 C   0  0  0  0  0  0  0  0  0  0  0  0
   -1.2915   -5.3711    0.0000 C   0  0  0  0  0  0  0  0  0  0  0  0
   -1.2915   -6.1961    0.0000 O   0  0  0  0  0  0  0  0  0  0  0  0
   -2.0059   -6.6087    0.0000 C   0  0  0  0  0  0  0  0  0  0  0  0
   -2.0059   -7.4337    0.0000 C   0  0  0  0  0  0  0  0  0  0  0  0
   -2.7203   -7.8462    0.0000 C   0  0  0  0  0  0  0  0  0  0  0  0
   -2.7203   -8.6712    0.0000 N   0  0  0  0  0  0  0  0  0  0  0  0
   -3.4347   -9.0837    0.0000 C   0  0  0  0  0  0  0  0  0  0  0  0
   -3.4347   -9.9087    0.0000 C   0  0  0  0  0  0  0  0  0  0  0  0
   -4.1491  -10.3213    0.0000 C   0  0  0  0  0  0  0  0  0  0  0  0
   -4.1491  -11.1463    0.0000 O   0  0  0  0  0  0  0  0  0  0  0  0
   -2.0060   -4.9587    0.0000 C   0  0  0  0  0  0  0  0  0  0  0  0
   -2.0060   -4.1337    0.0000 C   0  0  0  0  0  0  0  0  0  0  0  0
   -1.2916   -3.7211    0.0000 C   0  0  0  0  0  0  0  0  0  0  0  0
   -1.2916   -2.8961    0.0000 Cl  0  0  0  0  0  0  0  0  0  0  0  0
  1  2  2  0  0  0  0
  2  3  1  0  0  0  0
  3  4  1  0  0  0  0
  4  5  1  0  0  0  0
  5  6  1  0  0  0  0
  6  7  1  0  0  0  0
  9 14  1  0  0  0  0
  8  9  1  0  0  0  0
  9 10  1  0  0  0  0
  5 13  1  0  0  0  0
 11 12  1  0  0  0  0
  7 12  1  0  0  0  0
 11 13  1  0  0  0  0
 10 11  1  0  0  0  0
  7  8  1  0  0  0  0
  5 14  1  0  0  0  0
  2 15  1  0  0  0  0
 15 16  2  0  0  0  0
 16 17  1  0  0  0  0
 17 18  1  0  0  0  0
 18 19  1  0  0  0  0
 19 20  1  0  0  0  0
 20 21  1  0  0  0  0
 21 22  1  0  0  0  0
 22 23  1  0  0  0  0
 23 24  1  0  0  0  0
 24 25  1  0  0  0  0
 25 26  1  0  0  0  0
 17 27  2  0  0  0  0
 27 28  1  0  0  0  0
 28 29  2  0  0  0  0
 15 29  1  0  0  0  0
 29 30  1  0  0  0  0
M  END
>  <StandardizerResult>
Tautomerize


>  <CdId>
136

>  <Mol Weight>
435.01

>  <Formula>
C24H35ClN2O3

>  <Molecule ChEMBL ID>
CHEMBL550167

>  <Molecule Max Phase>
0

>  <Molecular Weight>
435.01

>  <#RO5 Violations>
0

>  <AlogP>
4.03

>  <Compound Key>
1599

>  <Standard Type>
pKa_B1

>  <Standard Value>
9.5

>  <Comment>
'B1 Functional Group: Secondary amine; Ionisation Formula: A0B1 (Functional Group: the part of the molecule the pKa refers to; Ionisation formula: AxBy where 'A' refers to acidic centers within the molecule that are appreciably ionised at a pH <= 11 and 'x' equals 0, 1 or 2; and 'B' refers to basic centers within the molecule that are appreciably ionised at a pH >= 2 and 'y' equals 0, 1, 2 or 3).'

>  <Potential Duplicate>
false

>  <Assay ChEMBL ID>
CHEMBL3301362

>  <Assay Description>
ASTRAZENECA: Most basic pKa value (pKa B1) determined by absorption and potentiometric titration using standard methodology from Sirius Analytical. Experimental range Bases: >= 2.

>  <Assay Type>
P

>  <BAO Format ID>
BAO_0000100

>  <BAO Label>
small-molecule physicochemical format

>  <Target ChEMBL ID>
CHEMBL2362975

>  <Target Name>
No relevant target

>  <Target Type>
NO TARGET

>  <Document ChEMBL ID>
CHEMBL3301361

>  <Source ID>
27

>  <Source Description>
AstraZeneca Deposited Data

>  <Strongest basic pKa>
9.83

>  <deltapKa>
-0.3255659700067728

>  <Strongest basic pKa_Taut>
9.83

>  <deltapKa_TAut>
-0.3255659700067728

$$$$

  Mrv1920 03272013312D          

 20 21  0  0  1  0            999 V2000
    0.0000    1.6500    0.0000 N   0  0  0  0  0  0  0  0  0  0  0  0
    0.7145    1.2375    0.0000 C   0  0  0  0  0  0  0  0  0  0  0  0
    1.4289    0.8250    0.0000 C   0  0  0  0  0  0  0  0  0  0  0  0
    2.1434    1.2375    0.0000 C   0  0  0  0  0  0  0  0  0  0  0  0
    2.8579    0.8250    0.0000 C   0  0  0  0  0  0  0  0  0  0  0  0
    2.8579    0.0000    0.0000 C   0  0  0  0  0  0  0  0  0  0  0  0
    3.5724   -0.4125    0.0000 Cl  0  0  0  0  0  0  0  0  0  0  0  0
    2.1434   -0.4125    0.0000 C   0  0  0  0  0  0  0  0  0  0  0  0
    1.4289    0.0000    0.0000 C   0  0  0  0  0  0  0  0  0  0  0  0
    0.7145   -0.4125    0.0000 S   0  0  0  0  0  0  0  0  0  0  0  0
    0.7145   -1.2375    0.0000 C   0  0  2  0  0  0  0  0  0  0  0  0
    1.4289   -1.6500    0.0000 C   0  0  0  0  0  0  0  0  0  0  0  0
    2.1434   -1.2375    0.0000 C   0  0  0  0  0  0  0  0  0  0  0  0
    2.8579   -1.6500    0.0000 N   0  0  0  0  0  0  0  0  0  0  0  0
    0.0000   -1.6500    0.0000 C   0  0  0  0  0  0  0  0  0  0  0  0
    0.0000   -2.4750    0.0000 C   0  0  0  0  0  0  0  0  0  0  0  0
   -0.7145   -2.8875    0.0000 C   0  0  0  0  0  0  0  0  0  0  0  0
   -1.4289   -2.4750    0.0000 C   0  0  0  0  0  0  0  0  0  0  0  0
   -1.4289   -1.6500    0.0000 C   0  0  0  0  0  0  0  0  0  0  0  0
   -0.7145   -1.2375    0.0000 C   0  0  0  0  0  0  0  0  0  0  0  0
  1  2  3  0  0  0  0
  2  3  1  0  0  0  0
  3  4  2  0  0  0  0
  4  5  1  0  0  0  0
  5  6  2  0  0  0  0
  6  7  1  0  0  0  0
  6  8  1  0  0  0  0
  8  9  2  0  0  0  0
  3  9  1  0  0  0  0
  9 10  1  0  0  0  0
 11 10  1  6  0  0  0
 11 12  1  0  0  0  0
 12 13  1  0  0  0  0
 13 14  1  0  0  0  0
 11 15  1  0  0  0  0
 15 16  2  0  0  0  0
 16 17  1  0  0  0  0
 17 18  2  0  0  0  0
 18 19  1  0  0  0  0
 19 20  2  0  0  0  0
 15 20  1  0  0  0  0
M  END
>  <StandardizerResult>
Tautomerize


>  <CdId>
202

>  <Mol Weight>
302.82

>  <Formula>
C16H15ClN2S

>  <Molecule ChEMBL ID>
CHEMBL1789155

>  <Molecule Max Phase>
0

>  <Molecular Weight>
302.83

>  <#RO5 Violations>
0

>  <AlogP>
4.39

>  <Compound Key>
2303

>  <Standard Type>
pKa_B1

>  <Standard Value>
9.7

>  <Comment>
'B1 Functional Group: Primary amine; Ionisation Formula: A0B1 (Functional Group: the part of the molecule the pKa refers to; Ionisation formula: AxBy where 'A' refers to acidic centers within the molecule that are appreciably ionised at a pH <= 11 and 'x' equals 0, 1 or 2; and 'B' refers to basic centers within the molecule that are appreciably ionised at a pH >= 2 and 'y' equals 0, 1, 2 or 3).'

>  <Potential Duplicate>
false

>  <Assay ChEMBL ID>
CHEMBL3301362

>  <Assay Description>
ASTRAZENECA: Most basic pKa value (pKa B1) determined by absorption and potentiometric titration using standard methodology from Sirius Analytical. Experimental range Bases: >= 2.

>  <Assay Type>
P

>  <BAO Format ID>
BAO_0000100

>  <BAO Label>
small-molecule physicochemical format

>  <Target ChEMBL ID>
CHEMBL2362975

>  <Target Name>
No relevant target

>  <Target Type>
NO TARGET

>  <Document ChEMBL ID>
CHEMBL3301361

>  <Source ID>
27

>  <Source Description>
AstraZeneca Deposited Data

>  <Strongest basic pKa>
10.01

>  <deltapKa>
-0.31241464560247145

>  <Strongest basic pKa_Taut>
10.01

>  <deltapKa_TAut>
-0.31241464560247145

$$$$

  Mrv1920 03272013312D          

 34 36  0  0  1  0            999 V2000
    3.5724   -2.8875    0.0000 C   0  0  0  0  0  0  0  0  0  0  0  0
    4.2868   -3.3000    0.0000 N   0  0  0  0  0  0  0  0  0  0  0  0
    5.0013   -2.8875    0.0000 C   0  0  0  0  0  0  0  0  0  0  0  0
    5.7158   -3.3000    0.0000 C   0  0  0  0  0  0  0  0  0  0  0  0
    6.4302   -2.8875    0.0000 C   0  0  0  0  0  0  0  0  0  0  0  0
    6.4302   -2.0625    0.0000 O   0  0  0  0  0  0  0  0  0  0  0  0
    7.1447   -3.3000    0.0000 N   0  0  0  0  0  0  0  0  0  0  0  0
    7.8592   -2.8875    0.0000 C   0  0  0  0  0  0  0  0  0  0  0  0
    8.5737   -3.3000    0.0000 C   0  0  1  0  0  0  0  0  0  0  0  0
    8.5737   -4.1250    0.0000 O   0  0  0  0  0  0  0  0  0  0  0  0
    9.2881   -2.8875    0.0000 C   0  0  0  0  0  0  0  0  0  0  0  0
   10.0026   -3.3000    0.0000 N   0  0  0  0  0  0  0  0  0  0  0  0
   10.7171   -2.8875    0.0000 C   0  0  0  0  0  0  0  0  0  0  0  0
   11.4315   -3.3000    0.0000 C   0  0  0  0  0  0  0  0  0  0  0  0
   11.4315   -4.1250    0.0000 C   0  0  0  0  0  0  0  0  0  0  0  0
   12.1460   -4.5375    0.0000 O   0  0  0  0  0  0  0  0  0  0  0  0
   12.1460   -5.3625    0.0000 C   0  0  0  0  0  0  0  0  0  0  0  0
   12.8605   -5.7750    0.0000 C   0  0  0  0  0  0  0  0  0  0  0  0
   12.8605   -6.6000    0.0000 C   0  0  0  0  0  0  0  0  0  0  0  0
   12.1460   -7.0125    0.0000 C   0  0  0  0  0  0  0  0  0  0  0  0
   12.1460   -7.8375    0.0000 Cl  0  0  0  0  0  0  0  0  0  0  0  0
   11.4315   -6.6000    0.0000 C   0  0  0  0  0  0  0  0  0  0  0  0
   10.7171   -7.0125    0.0000 Cl  0  0  0  0  0  0  0  0  0  0  0  0
   11.4315   -5.7750    0.0000 C   0  0  0  0  0  0  0  0  0  0  0  0
   10.7171   -4.5375    0.0000 C   0  0  0  0  0  0  0  0  0  0  0  0
   10.0026   -4.1250    0.0000 C   0  0  0  0  0  0  0  0  0  0  0  0
    5.7158   -4.1250    0.0000 C   0  0  0  0  0  0  0  0  0  0  0  0
    6.4302   -4.5375    0.0000 C   0  0  0  0  0  0  0  0  0  0  0  0
    7.1447   -4.9500    0.0000 F   0  0  0  0  0  0  0  0  0  0  0  0
    6.0177   -5.2520    0.0000 F   0  0  0  0  0  0  0  0  0  0  0  0
    6.8427   -3.8230    0.0000 F   0  0  0  0  0  0  0  0  0  0  0  0
    5.0013   -4.5375    0.0000 C   0  0  0  0  0  0  0  0  0  0  0  0
    4.2868   -4.1250    0.0000 C   0  0  0  0  0  0  0  0  0  0  0  0
    3.5724   -4.5375    0.0000 O   0  0  0  0  0  0  0  0  0  0  0  0
  1  2  1  0  0  0  0
  2  3  1  0  0  0  0
  3  4  2  0  0  0  0
  4  5  1  0  0  0  0
  5  6  2  0  0  0  0
  5  7  1  0  0  0  0
  7  8  1  0  0  0  0
  9  8  1  0  0  0  0
  9 10  1  6  0  0  0
  9 11  1  0  0  0  0
 11 12  1  0  0  0  0
 12 13  1  0  0  0  0
 13 14  1  0  0  0  0
 14 15  1  0  0  0  0
 15 16  1  0  0  0  0
 16 17  1  0  0  0  0
 17 18  2  0  0  0  0
 18 19  1  0  0  0  0
 19 20  2  0  0  0  0
 20 21  1  0  0  0  0
 20 22  1  0  0  0  0
 22 23  1  0  0  0  0
 22 24  2  0  0  0  0
 17 24  1  0  0  0  0
 15 25  1  0  0  0  0
 25 26  1  0  0  0  0
 12 26  1  0  0  0  0
  4 27  1  0  0  0  0
 27 28  1  0  0  0  0
 28 29  1  0  0  0  0
 28 30  1  0  0  0  0
 28 31  1  0  0  0  0
 27 32  2  0  0  0  0
 32 33  1  0  0  0  0
  2 33  1  0  0  0  0
 33 34  2  0  0  0  0
M  END
>  <StandardizerResult>
Tautomerize


>  <CdId>
56

>  <Mol Weight>
522.35

>  <Formula>
C22H24Cl2F3N3O4

>  <Molecule ChEMBL ID>
CHEMBL2207665

>  <Molecule Max Phase>
0

>  <Molecular Weight>
522.35

>  <#RO5 Violations>
1

>  <AlogP>
3.35

>  <Compound Key>
2689

>  <Standard Type>
pKa_B1

>  <Standard Value>
7.8

>  <Comment>
'B1 Functional Group: Piperidine; Ionisation Formula: A0B1 (Functional Group: the part of the molecule the pKa refers to; Ionisation formula: AxBy where 'A' refers to acidic centers within the molecule that are appreciably ionised at a pH <= 11 and 'x' equals 0, 1 or 2; and 'B' refers to basic centers within the molecule that are appreciably ionised at a pH >= 2 and 'y' equals 0, 1, 2 or 3).'

>  <Potential Duplicate>
false

>  <Assay ChEMBL ID>
CHEMBL3301362

>  <Assay Description>
ASTRAZENECA: Most basic pKa value (pKa B1) determined by absorption and potentiometric titration using standard methodology from Sirius Analytical. Experimental range Bases: >= 2.

>  <Assay Type>
P

>  <BAO Format ID>
BAO_0000100

>  <BAO Label>
small-molecule physicochemical format

>  <Target ChEMBL ID>
CHEMBL2362975

>  <Target Name>
No relevant target

>  <Target Type>
NO TARGET

>  <Document ChEMBL ID>
CHEMBL3301361

>  <Source ID>
27

>  <Source Description>
AstraZeneca Deposited Data

>  <Strongest basic pKa>
8.11

>  <deltapKa>
-0.31069432209898107

>  <Strongest basic pKa_Taut>
8.11

>  <deltapKa_TAut>
-0.31069432209898107

$$$$

  Mrv1920 03272013312D          

 12 12  0  0  0  0            999 V2000
    0.0000    3.3000    0.0000 N   0  0  0  0  0  0  0  0  0  0  0  0
    0.0000    2.4750    0.0000 C   0  0  0  0  0  0  0  0  0  0  0  0
    0.7145    2.0625    0.0000 C   0  0  0  0  0  0  0  0  0  0  0  0
    0.7145    1.2375    0.0000 C   0  0  0  0  0  0  0  0  0  0  0  0
    1.4289    0.8250    0.0000 C   0  0  0  0  0  0  0  0  0  0  0  0
    1.4289    0.0000    0.0000 C   0  0  0  0  0  0  0  0  0  0  0  0
    0.7145   -0.4125    0.0000 C   0  0  0  0  0  0  0  0  0  0  0  0
    0.7145   -1.2375    0.0000 N   0  3  0  0  0  0  0  0  0  0  0  0
    1.4289   -1.6500    0.0000 O   0  0  0  0  0  0  0  0  0  0  0  0
    0.0000   -1.6500    0.0000 O   0  5  0  0  0  0  0  0  0  0  0  0
    0.0000    0.0000    0.0000 C   0  0  0  0  0  0  0  0  0  0  0  0
    0.0000    0.8250    0.0000 C   0  0  0  0  0  0  0  0  0  0  0  0
  1  2  1  0  0  0  0
  2  3  1  0  0  0  0
  3  4  1  0  0  0  0
  4  5  2  0  0  0  0
  5  6  1  0  0  0  0
  6  7  2  0  0  0  0
  7  8  1  0  0  0  0
  8  9  2  0  0  0  0
  8 10  1  0  0  0  0
  7 11  1  0  0  0  0
 11 12  2  0  0  0  0
  4 12  1  0  0  0  0
M  CHG  2   8   1  10  -1
M  END
>  <StandardizerResult>
Tautomerize


>  <CdId>
120

>  <Mol Weight>
166.18

>  <Formula>
C8H10N2O2

>  <Molecule ChEMBL ID>
CHEMBL502343

>  <Molecule Max Phase>
0

>  <Molecular Weight>
166.18

>  <#RO5 Violations>
0

>  <AlogP>
1.1

>  <Compound Key>
1328

>  <Standard Type>
pKa_B1

>  <Standard Value>
9.4

>  <Comment>
'B1 Functional Group: Primary amine; Ionisation Formula: A0B1 (Functional Group: the part of the molecule the pKa refers to; Ionisation formula: AxBy where 'A' refers to acidic centers within the molecule that are appreciably ionised at a pH <= 11 and 'x' equals 0, 1 or 2; and 'B' refers to basic centers within the molecule that are appreciably ionised at a pH >= 2 and 'y' equals 0, 1, 2 or 3).'

>  <Potential Duplicate>
false

>  <Assay ChEMBL ID>
CHEMBL3301362

>  <Assay Description>
ASTRAZENECA: Most basic pKa value (pKa B1) determined by absorption and potentiometric titration using standard methodology from Sirius Analytical. Experimental range Bases: >= 2.

>  <Assay Type>
P

>  <BAO Format ID>
BAO_0000100

>  <BAO Label>
small-molecule physicochemical format

>  <Target ChEMBL ID>
CHEMBL2362975

>  <Target Name>
No relevant target

>  <Target Type>
NO TARGET

>  <Document ChEMBL ID>
CHEMBL3301361

>  <Source ID>
27

>  <Source Description>
AstraZeneca Deposited Data

>  <Strongest basic pKa>
9.69

>  <deltapKa>
-0.2904126857394065

>  <Strongest basic pKa_Taut>
9.69

>  <deltapKa_TAut>
-0.2904126857394065

$$$$

  Mrv1920 03272013312D          

 17 18  0  0  0  0            999 V2000
    2.1434   -1.2375    0.0000 C   0  0  0  0  0  0  0  0  0  0  0  0
    1.4289   -1.6500    0.0000 O   0  0  0  0  0  0  0  0  0  0  0  0
    1.4289   -2.4750    0.0000 C   0  0  0  0  0  0  0  0  0  0  0  0
    2.1434   -2.8875    0.0000 C   0  0  0  0  0  0  0  0  0  0  0  0
    2.1434   -3.7125    0.0000 C   0  0  0  0  0  0  0  0  0  0  0  0
    1.4289   -4.1250    0.0000 C   0  0  0  0  0  0  0  0  0  0  0  0
    0.7145   -3.7125    0.0000 C   0  0  0  0  0  0  0  0  0  0  0  0
    0.7145   -2.8875    0.0000 C   0  0  0  0  0  0  0  0  0  0  0  0
    0.0000   -2.4750    0.0000 C   0  0  0  0  0  0  0  0  0  0  0  0
   -0.7145   -2.8875    0.0000 N   0  0  0  0  0  0  0  0  0  0  0  0
   -1.4289   -2.4750    0.0000 C   0  0  0  0  0  0  0  0  0  0  0  0
   -2.1434   -2.8875    0.0000 C   0  0  0  0  0  0  0  0  0  0  0  0
   -2.8579   -2.4750    0.0000 C   0  0  0  0  0  0  0  0  0  0  0  0
   -3.5724   -2.8875    0.0000 C   0  0  0  0  0  0  0  0  0  0  0  0
   -2.8579   -1.6500    0.0000 C   0  0  0  0  0  0  0  0  0  0  0  0
   -2.1434   -1.2375    0.0000 C   0  0  0  0  0  0  0  0  0  0  0  0
   -1.4289   -1.6500    0.0000 N   0  0  0  0  0  0  0  0  0  0  0  0
  1  2  1  0  0  0  0
  2  3  1  0  0  0  0
  3  4  2  0  0  0  0
  4  5  1  0  0  0  0
  5  6  2  0  0  0  0
  6  7  1  0  0  0  0
  7  8  2  0  0  0  0
  3  8  1  0  0  0  0
  8  9  1  0  0  0  0
  9 10  1  0  0  0  0
 10 11  1  0  0  0  0
 11 12  2  0  0  0  0
 12 13  1  0  0  0  0
 13 14  1  0  0  0  0
 13 15  2  0  0  0  0
 15 16  1  0  0  0  0
 16 17  2  0  0  0  0
 11 17  1  0  0  0  0
M  END
>  <StandardizerResult>
Tautomerize


>  <CdId>
228

>  <Mol Weight>
228.29

>  <Formula>
C14H16N2O

>  <Molecule ChEMBL ID>
CHEMBL1455477

>  <Molecule Max Phase>
0

>  <Molecular Weight>
228.29

>  <#RO5 Violations>
0

>  <AlogP>
3.01

>  <Compound Key>
1513

>  <Standard Type>
pKa_B1

>  <Standard Value>
7.1

>  <Comment>
'B1 Functional Group: 2-Pyridinamine; Ionisation Formula: A0B1 (Functional Group: the part of the molecule the pKa refers to; Ionisation formula: AxBy where 'A' refers to acidic centers within the molecule that are appreciably ionised at a pH <= 11 and 'x' equals 0, 1 or 2; and 'B' refers to basic centers within the molecule that are appreciably ionised at a pH >= 2 and 'y' equals 0, 1, 2 or 3).'

>  <Potential Duplicate>
false

>  <Assay ChEMBL ID>
CHEMBL3301362

>  <Assay Description>
ASTRAZENECA: Most basic pKa value (pKa B1) determined by absorption and potentiometric titration using standard methodology from Sirius Analytical. Experimental range Bases: >= 2.

>  <Assay Type>
P

>  <BAO Format ID>
BAO_0000100

>  <BAO Label>
small-molecule physicochemical format

>  <Target ChEMBL ID>
CHEMBL2362975

>  <Target Name>
No relevant target

>  <Target Type>
NO TARGET

>  <Document ChEMBL ID>
CHEMBL3301361

>  <Source ID>
27

>  <Source Description>
AstraZeneca Deposited Data

>  <Strongest basic pKa>
7.38

>  <deltapKa>
-0.2781948272566339

>  <Strongest basic pKa_Taut>
7.38

>  <deltapKa_TAut>
-0.2781948272566339

$$$$

  Mrv1920 03272013312D          

 30 34  0  0  0  0            999 V2000
   -7.1931   -9.2380    0.0000 C   0  0  0  0  0  0  0  0  0  0  0  0
   -6.6411   -9.8511    0.0000 C   0  0  0  0  0  0  0  0  0  0  0  0
   -6.8960  -10.6357    0.0000 N   0  0  0  0  0  0  0  0  0  0  0  0
   -6.3440  -11.2488    0.0000 C   0  0  0  0  0  0  0  0  0  0  0  0
   -5.5370  -11.0773    0.0000 N   0  0  0  0  0  0  0  0  0  0  0  0
   -5.2821  -10.2926    0.0000 C   0  0  0  0  0  0  0  0  0  0  0  0
   -4.4751  -10.1211    0.0000 O   0  0  0  0  0  0  0  0  0  0  0  0
   -5.8341   -9.6795    0.0000 C   0  0  0  0  0  0  0  0  0  0  0  0
   -5.5792   -8.8949    0.0000 C   0  0  0  0  0  0  0  0  0  0  0  0
   -6.1312   -8.2818    0.0000 C   0  0  0  0  0  0  0  0  0  0  0  0
   -5.8763   -7.4972    0.0000 N   0  0  0  0  0  0  0  0  0  0  0  0
   -6.4283   -6.8841    0.0000 C   0  0  0  0  0  0  0  0  0  0  0  0
   -6.1734   -6.0995    0.0000 C   0  0  0  0  0  0  0  0  0  0  0  0
   -5.3664   -5.9280    0.0000 C   0  0  0  0  0  0  0  0  0  0  0  0
   -5.1115   -5.1433    0.0000 C   0  0  0  0  0  0  0  0  0  0  0  0
   -5.5964   -4.4759    0.0000 N   0  0  0  0  0  0  0  0  0  0  0  0
   -5.1115   -3.8085    0.0000 O   0  0  0  0  0  0  0  0  0  0  0  0
   -4.3268   -4.0634    0.0000 C   0  0  0  0  0  0  0  0  0  0  0  0
   -3.6124   -3.6509    0.0000 C   0  0  0  0  0  0  0  0  0  0  0  0
   -2.8979   -4.0634    0.0000 C   0  0  0  0  0  0  0  0  0  0  0  0
   -2.1834   -3.6509    0.0000 F   0  0  0  0  0  0  0  0  0  0  0  0
   -2.8979   -4.8884    0.0000 C   0  0  0  0  0  0  0  0  0  0  0  0
   -3.6124   -5.3009    0.0000 C   0  0  0  0  0  0  0  0  0  0  0  0
   -4.3268   -4.8884    0.0000 C   0  0  0  0  0  0  0  0  0  0  0  0
   -4.8144   -6.5410    0.0000 C   0  0  0  0  0  0  0  0  0  0  0  0
   -5.0693   -7.3257    0.0000 C   0  0  0  0  0  0  0  0  0  0  0  0
   -4.9850  -11.6903    0.0000 C   0  0  0  0  0  0  0  0  0  0  0  0
   -5.2399  -12.4750    0.0000 C   0  0  0  0  0  0  0  0  0  0  0  0
   -6.0469  -12.6465    0.0000 C   0  0  0  0  0  0  0  0  0  0  0  0
   -6.5989  -12.0334    0.0000 C   0  0  0  0  0  0  0  0  0  0  0  0
  1  2  1  0  0  0  0
  2  3  1  0  0  0  0
  3  4  2  0  0  0  0
  4  5  1  0  0  0  0
  5  6  1  0  0  0  0
  6  7  2  0  0  0  0
  6  8  1  0  0  0  0
  2  8  2  0  0  0  0
  8  9  1  0  0  0  0
  9 10  1  0  0  0  0
 10 11  1  0  0  0  0
 11 12  1  0  0  0  0
 12 13  1  0  0  0  0
 13 14  1  0  0  0  0
 14 15  1  0  0  0  0
 15 16  2  0  0  0  0
 16 17  1  0  0  0  0
 17 18  1  0  0  0  0
 18 19  2  0  0  0  0
 19 20  1  0  0  0  0
 20 21  1  0  0  0  0
 20 22  2  0  0  0  0
 22 23  1  0  0  0  0
 23 24  2  0  0  0  0
 15 24  1  0  0  0  0
 18 24  1  0  0  0  0
 14 25  1  0  0  0  0
 25 26  1  0  0  0  0
 11 26  1  0  0  0  0
  5 27  1  0  0  0  0
 27 28  1  0  0  0  0
 28 29  1  0  0  0  0
 29 30  1  0  0  0  0
  4 30  1  0  0  0  0
M  END
>  <StandardizerResult>
Tautomerize


>  <CdId>
221

>  <Mol Weight>
410.49

>  <Formula>
C23H27FN4O2

>  <Molecule ChEMBL ID>
CHEMBL85

>  <Molecule Name>
RISPERIDONE

>  <Molecule Max Phase>
4

>  <Molecular Weight>
410.49

>  <#RO5 Violations>
0

>  <AlogP>
3.59

>  <Compound Key>
BDBM50001885

>  <Standard Type>
pKa_B1

>  <Standard Value>
8.49

>  <Comment>
'B1 Functional Group: Piperidine; Ionisation Formula: A0B2 (Functional Group: the part of the molecule the pKa refers to; Ionisation formula: AxBy where 'A' refers to acidic centers within the molecule that are appreciably ionised at a pH <= 11 and 'x' equals 0, 1 or 2; and 'B' refers to basic centers within the molecule that are appreciably ionised at a pH >= 2 and 'y' equals 0, 1, 2 or 3).'

>  <Potential Duplicate>
false

>  <Assay ChEMBL ID>
CHEMBL3301362

>  <Assay Description>
ASTRAZENECA: Most basic pKa value (pKa B1) determined by absorption and potentiometric titration using standard methodology from Sirius Analytical. Experimental range Bases: >= 2.

>  <Assay Type>
P

>  <BAO Format ID>
BAO_0000100

>  <BAO Label>
small-molecule physicochemical format

>  <Target ChEMBL ID>
CHEMBL2362975

>  <Target Name>
No relevant target

>  <Target Type>
NO TARGET

>  <Document ChEMBL ID>
CHEMBL3301361

>  <Source ID>
27

>  <Source Description>
AstraZeneca Deposited Data

>  <Strongest basic pKa>
8.76

>  <deltapKa>
-0.27319663141172335

>  <Strongest basic pKa_Taut>
8.76

>  <deltapKa_TAut>
-0.27319663141172335

$$$$

  Mrv1920 03272013312D          

 34 37  0  0  0  0            999 V2000
   -4.9500   -2.6961    0.0000 C   0  0  0  0  0  0  0  0  0  0  0  0
   -4.1250   -2.6961    0.0000 N   0  0  0  0  0  0  0  0  0  0  0  0
   -3.7125   -1.9816    0.0000 C   0  0  0  0  0  0  0  0  0  0  0  0
   -3.7125   -3.4105    0.0000 C   0  0  0  0  0  0  0  0  0  0  0  0
   -4.1250   -4.1250    0.0000 O   0  0  0  0  0  0  0  0  0  0  0  0
   -2.8875   -3.4105    0.0000 C   0  0  0  0  0  0  0  0  0  0  0  0
   -2.8875   -2.5855    0.0000 C   0  0  0  0  0  0  0  0  0  0  0  0
   -2.1730   -2.1730    0.0000 C   0  0  0  0  0  0  0  0  0  0  0  0
   -2.1730   -1.3480    0.0000 N   0  0  0  0  0  0  0  0  0  0  0  0
   -2.8875   -0.9355    0.0000 C   0  0  0  0  0  0  0  0  0  0  0  0
   -2.8875   -0.1105    0.0000 C   0  0  0  0  0  0  0  0  0  0  0  0
   -2.1730    0.3020    0.0000 C   0  0  0  0  0  0  0  0  0  0  0  0
   -2.7033    0.9340    0.0000 O   0  0  0  0  0  0  0  0  0  0  0  0
   -1.6427    0.9340    0.0000 C   0  0  0  0  0  0  0  0  0  0  0  0
   -1.9249    1.7092    0.0000 C   0  0  0  0  0  0  0  0  0  0  0  0
   -1.3946    2.3412    0.0000 C   0  0  0  0  0  0  0  0  0  0  0  0
   -0.5821    2.1979    0.0000 C   0  0  0  0  0  0  0  0  0  0  0  0
   -0.0518    2.8299    0.0000 Cl  0  0  0  0  0  0  0  0  0  0  0  0
   -0.3000    1.4227    0.0000 C   0  0  0  0  0  0  0  0  0  0  0  0
   -0.8303    0.7907    0.0000 C   0  0  0  0  0  0  0  0  0  0  0  0
   -1.4586   -0.1105    0.0000 C   0  0  0  0  0  0  0  0  0  0  0  0
   -1.4586   -0.9355    0.0000 C   0  0  0  0  0  0  0  0  0  0  0  0
   -2.8875   -4.2355    0.0000 C   0  0  0  0  0  0  0  0  0  0  0  0
   -2.1730   -4.6480    0.0000 C   0  0  0  0  0  0  0  0  0  0  0  0
   -2.1730   -5.4730    0.0000 C   0  0  0  0  0  0  0  0  0  0  0  0
   -2.8875   -5.8855    0.0000 C   0  0  0  0  0  0  0  0  0  0  0  0
   -3.6020   -5.4730    0.0000 C   0  0  0  0  0  0  0  0  0  0  0  0
   -3.6020   -4.6480    0.0000 C   0  0  0  0  0  0  0  0  0  0  0  0
   -2.0625   -3.4105    0.0000 C   0  0  0  0  0  0  0  0  0  0  0  0
   -1.6500   -2.6961    0.0000 C   0  0  0  0  0  0  0  0  0  0  0  0
   -0.8250   -2.6961    0.0000 C   0  0  0  0  0  0  0  0  0  0  0  0
   -0.4125   -3.4105    0.0000 C   0  0  0  0  0  0  0  0  0  0  0  0
   -0.8250   -4.1250    0.0000 C   0  0  0  0  0  0  0  0  0  0  0  0
   -1.6500   -4.1250    0.0000 C   0  0  0  0  0  0  0  0  0  0  0  0
  1  2  1  0  0  0  0
  2  3  1  0  0  0  0
  2  4  1  0  0  0  0
  4  5  2  0  0  0  0
  4  6  1  0  0  0  0
  6  7  1  0  0  0  0
  7  8  1  0  0  0  0
  8  9  1  0  0  0  0
  9 10  1  0  0  0  0
 10 11  1  0  0  0  0
 11 12  1  0  0  0  0
 12 13  1  0  0  0  0
 12 14  1  0  0  0  0
 14 15  2  0  0  0  0
 15 16  1  0  0  0  0
 16 17  2  0  0  0  0
 17 18  1  0  0  0  0
 17 19  1  0  0  0  0
 19 20  2  0  0  0  0
 14 20  1  0  0  0  0
 12 21  1  0  0  0  0
 21 22  1  0  0  0  0
  9 22  1  0  0  0  0
  6 23  1  0  0  0  0
 23 24  2  0  0  0  0
 24 25  1  0  0  0  0
 25 26  2  0  0  0  0
 26 27  1  0  0  0  0
 27 28  2  0  0  0  0
 23 28  1  0  0  0  0
  6 29  1  0  0  0  0
 29 30  2  0  0  0  0
 30 31  1  0  0  0  0
 31 32  2  0  0  0  0
 32 33  1  0  0  0  0
 33 34  2  0  0  0  0
 29 34  1  0  0  0  0
M  END
>  <StandardizerResult>
Tautomerize


>  <CdId>
164

>  <Mol Weight>
477.05

>  <Formula>
C29H33ClN2O2

>  <Molecule ChEMBL ID>
CHEMBL841

>  <Molecule Name>
LOPERAMIDE

>  <Molecule Max Phase>
4

>  <Molecular Weight>
477.05

>  <#RO5 Violations>
1

>  <AlogP>
5.09

>  <Compound Key>
683

>  <Standard Type>
pKa_B1

>  <Standard Value>
9.14

>  <Comment>
'B1 Functional Group: Piperidine; Ionisation Formula: A0B1 (Functional Group: the part of the molecule the pKa refers to; Ionisation formula: AxBy where 'A' refers to acidic centers within the molecule that are appreciably ionised at a pH <= 11 and 'x' equals 0, 1 or 2; and 'B' refers to basic centers within the molecule that are appreciably ionised at a pH >= 2 and 'y' equals 0, 1, 2 or 3).'

>  <Potential Duplicate>
false

>  <Assay ChEMBL ID>
CHEMBL3301362

>  <Assay Description>
ASTRAZENECA: Most basic pKa value (pKa B1) determined by absorption and potentiometric titration using standard methodology from Sirius Analytical. Experimental range Bases: >= 2.

>  <Assay Type>
P

>  <BAO Format ID>
BAO_0000100

>  <BAO Label>
small-molecule physicochemical format

>  <Target ChEMBL ID>
CHEMBL2362975

>  <Target Name>
No relevant target

>  <Target Type>
NO TARGET

>  <Document ChEMBL ID>
CHEMBL3301361

>  <Source ID>
27

>  <Source Description>
AstraZeneca Deposited Data

>  <Strongest basic pKa>
9.41

>  <deltapKa>
-0.26929860319718735

>  <Strongest basic pKa_Taut>
9.41

>  <deltapKa_TAut>
-0.26929860319718735

$$$$

  Mrv1920 03272013312D          

 33 36  0  0  0  0            999 V2000
   -0.7145   -3.7125    0.0000 O   0  0  0  0  0  0  0  0  0  0  0  0
   -1.4289   -4.1250    0.0000 C   0  0  0  0  0  0  0  0  0  0  0  0
   -2.1434   -3.7125    0.0000 O   0  0  0  0  0  0  0  0  0  0  0  0
   -1.4289   -4.9500    0.0000 C   0  0  0  0  0  0  0  0  0  0  0  0
   -2.1434   -5.3625    0.0000 O   0  0  0  0  0  0  0  0  0  0  0  0
   -2.1434   -6.1875    0.0000 C   0  0  0  0  0  0  0  0  0  0  0  0
   -1.4289   -6.6000    0.0000 C   0  0  0  0  0  0  0  0  0  0  0  0
   -1.4289   -7.4250    0.0000 C   0  0  0  0  0  0  0  0  0  0  0  0
   -2.1434   -7.8375    0.0000 C   0  0  0  0  0  0  0  0  0  0  0  0
   -2.8579   -7.4250    0.0000 C   0  0  0  0  0  0  0  0  0  0  0  0
   -3.5724   -7.8375    0.0000 N   0  0  0  0  0  0  0  0  0  0  0  0
   -3.5724   -8.6625    0.0000 C   0  0  0  0  0  0  0  0  0  0  0  0
   -4.2868   -9.0750    0.0000 C   0  0  0  0  0  0  0  0  0  0  0  0
   -5.0013   -8.6625    0.0000 C   0  0  0  0  0  0  0  0  0  0  0  0
   -5.7158   -9.0750    0.0000 C   0  0  0  0  0  0  0  0  0  0  0  0
   -6.4302   -8.6625    0.0000 N   0  0  0  0  0  0  0  0  0  0  0  0
   -7.1447   -9.0750    0.0000 C   0  0  0  0  0  0  0  0  0  0  0  0
   -7.8592   -8.6625    0.0000 C   0  0  0  0  0  0  0  0  0  0  0  0
   -7.8592   -7.8375    0.0000 C   0  0  0  0  0  0  0  0  0  0  0  0
   -8.5737   -7.4250    0.0000 O   0  0  0  0  0  0  0  0  0  0  0  0
   -9.2881   -7.8375    0.0000 C   0  0  0  0  0  0  0  0  0  0  0  0
   -9.2881   -8.6625    0.0000 C   0  0  0  0  0  0  0  0  0  0  0  0
  -10.0026   -9.0750    0.0000 C   0  0  0  0  0  0  0  0  0  0  0  0
  -10.7171   -8.6625    0.0000 C   0  0  0  0  0  0  0  0  0  0  0  0
  -11.4315   -9.0750    0.0000 Cl  0  0  0  0  0  0  0  0  0  0  0  0
  -10.7171   -7.8375    0.0000 C   0  0  0  0  0  0  0  0  0  0  0  0
  -11.4315   -7.4250    0.0000 Cl  0  0  0  0  0  0  0  0  0  0  0  0
  -10.0026   -7.4250    0.0000 C   0  0  0  0  0  0  0  0  0  0  0  0
   -7.1447   -7.4250    0.0000 C   0  0  0  0  0  0  0  0  0  0  0  0
   -6.4302   -7.8375    0.0000 C   0  0  0  0  0  0  0  0  0  0  0  0
   -5.0013   -7.8375    0.0000 C   0  0  0  0  0  0  0  0  0  0  0  0
   -4.2868   -7.4250    0.0000 C   0  0  0  0  0  0  0  0  0  0  0  0
   -2.8579   -6.6000    0.0000 C   0  0  0  0  0  0  0  0  0  0  0  0
  1  2  2  0  0  0  0
  2  3  1  0  0  0  0
  2  4  1  0  0  0  0
  4  5  1  0  0  0  0
  5  6  1  0  0  0  0
  6  7  2  0  0  0  0
  7  8  1  0  0  0  0
  8  9  2  0  0  0  0
  9 10  1  0  0  0  0
 10 11  1  0  0  0  0
 11 12  1  0  0  0  0
 12 13  1  0  0  0  0
 13 14  1  0  0  0  0
 14 15  1  0  0  0  0
 15 16  1  0  0  0  0
 16 17  1  0  0  0  0
 17 18  1  0  0  0  0
 18 19  1  0  0  0  0
 19 20  1  0  0  0  0
 20 21  1  0  0  0  0
 21 22  2  0  0  0  0
 22 23  1  0  0  0  0
 23 24  2  0  0  0  0
 24 25  1  0  0  0  0
 24 26  1  0  0  0  0
 26 27  1  0  0  0  0
 26 28  2  0  0  0  0
 21 28  1  0  0  0  0
 19 29  1  0  0  0  0
 29 30  1  0  0  0  0
 16 30  1  0  0  0  0
 14 31  1  0  0  0  0
 31 32  1  0  0  0  0
 11 32  1  0  0  0  0
 10 33  2  0  0  0  0
  6 33  1  0  0  0  0
M  END
>  <StandardizerResult>
Tautomerize


>  <CdId>
74

>  <Mol Weight>
493.43

>  <Formula>
C25H30Cl2N2O4

>  <Molecule ChEMBL ID>
CHEMBL2158829

>  <Molecule Max Phase>
0

>  <Molecular Weight>
493.43

>  <#RO5 Violations>
1

>  <AlogP>
5.22

>  <Compound Key>
3147

>  <Standard Type>
pKa_B1

>  <Standard Value>
9.3

>  <Comment>
'B1 Functional Group: 4-Phenoxypiperidine; Ionisation Formula: A1B2 (Functional Group: the part of the molecule the pKa refers to; Ionisation formula: AxBy where 'A' refers to acidic centers within the molecule that are appreciably ionised at a pH <= 11 and 'x' equals 0, 1 or 2; and 'B' refers to basic centers within the molecule that are appreciably ionised at a pH >= 2 and 'y' equals 0, 1, 2 or 3).'

>  <Potential Duplicate>
false

>  <Assay ChEMBL ID>
CHEMBL3301362

>  <Assay Description>
ASTRAZENECA: Most basic pKa value (pKa B1) determined by absorption and potentiometric titration using standard methodology from Sirius Analytical. Experimental range Bases: >= 2.

>  <Assay Type>
P

>  <BAO Format ID>
BAO_0000100

>  <BAO Label>
small-molecule physicochemical format

>  <Target ChEMBL ID>
CHEMBL2362975

>  <Target Name>
No relevant target

>  <Target Type>
NO TARGET

>  <Document ChEMBL ID>
CHEMBL3301361

>  <Source ID>
27

>  <Source Description>
AstraZeneca Deposited Data

>  <Strongest basic pKa>
9.57

>  <deltapKa>
-0.2687913275393772

>  <Strongest basic pKa_Taut>
9.57

>  <deltapKa_TAut>
-0.2687913275393772

$$$$

  Mrv1920 03272013312D          

 27 31  0  0  0  0            999 V2000
    0.8518   -4.1335    0.0000 O   0  0  0  0  0  0  0  0  0  0  0  0
    0.1373   -3.7210    0.0000 C   0  0  0  0  0  0  0  0  0  0  0  0
    0.1373   -2.8960    0.0000 N   0  0  0  0  0  0  0  0  0  0  0  0
    0.8517   -2.4835    0.0000 C   0  0  0  0  0  0  0  0  0  0  0  0
    0.8517   -1.6585    0.0000 C   0  0  0  0  0  0  0  0  0  0  0  0
    0.1163   -2.0322    0.0000 C   0  0  0  0  0  0  0  0  0  0  0  0
    0.5657   -1.2419    0.0000 C   0  0  0  0  0  0  0  0  0  0  0  0
    0.5657   -0.4945    0.0000 C   0  0  0  0  0  0  0  0  0  0  0  0
    1.3012   -0.1208    0.0000 C   0  0  0  0  0  0  0  0  0  0  0  0
    2.0368   -0.4945    0.0000 C   0  0  0  0  0  0  0  0  0  0  0  0
    2.0368   -1.2419    0.0000 C   0  0  0  0  0  0  0  0  0  0  0  0
    1.3012   -1.6156    0.0000 C   0  0  0  0  0  0  0  0  0  0  0  0
    1.5873   -2.0322    0.0000 C   0  0  0  0  0  0  0  0  0  0  0  0
    0.8517   -0.9111    0.0000 C   0  0  0  0  0  0  0  0  0  0  0  0
   -0.5771   -4.1336    0.0000 C   0  0  0  0  0  0  0  0  0  0  0  0
   -0.5771   -4.9586    0.0000 C   0  0  0  0  0  0  0  0  0  0  0  0
   -1.2915   -5.3711    0.0000 C   0  0  0  0  0  0  0  0  0  0  0  0
   -1.2915   -6.1961    0.0000 N   0  0  0  0  0  0  0  0  0  0  0  0
   -0.5770   -6.6086    0.0000 C   0  0  0  0  0  0  0  0  0  0  0  0
   -0.5769   -7.4336    0.0000 C   0  0  0  0  0  0  0  0  0  0  0  0
   -1.2914   -7.8461    0.0000 N   0  0  0  0  0  0  0  0  0  0  0  0
   -2.0059   -7.4337    0.0000 C   0  0  0  0  0  0  0  0  0  0  0  0
   -2.0059   -6.6087    0.0000 C   0  0  0  0  0  0  0  0  0  0  0  0
   -2.0060   -4.9587    0.0000 N   0  0  0  0  0  0  0  0  0  0  0  0
   -2.0060   -4.1337    0.0000 C   0  0  0  0  0  0  0  0  0  0  0  0
   -1.2916   -3.7211    0.0000 C   0  0  0  0  0  0  0  0  0  0  0  0
   -1.2916   -2.8961    0.0000 Cl  0  0  0  0  0  0  0  0  0  0  0  0
  1  2  2  0  0  0  0
  2  3  1  0  0  0  0
  3  4  1  0  0  0  0
  4  5  1  0  0  0  0
  5  6  1  0  0  0  0
  6  7  1  0  0  0  0
  9 14  1  0  0  0  0
  8  9  1  0  0  0  0
  9 10  1  0  0  0  0
  5 13  1  0  0  0  0
 11 12  1  0  0  0  0
  7 12  1  0  0  0  0
 11 13  1  0  0  0  0
 10 11  1  0  0  0  0
  7  8  1  0  0  0  0
  5 14  1  0  0  0  0
  2 15  1  0  0  0  0
 15 16  2  0  0  0  0
 16 17  1  0  0  0  0
 17 18  1  0  0  0  0
 18 19  1  0  0  0  0
 19 20  1  0  0  0  0
 20 21  1  0  0  0  0
 21 22  1  0  0  0  0
 22 23  1  0  0  0  0
 18 23  1  0  0  0  0
 17 24  2  0  0  0  0
 24 25  1  0  0  0  0
 25 26  2  0  0  0  0
 15 26  1  0  0  0  0
 26 27  1  0  0  0  0
M  END
>  <StandardizerResult>
Tautomerize


>  <CdId>
180

>  <Mol Weight>
388.94

>  <Formula>
C21H29ClN4O

>  <Molecule ChEMBL ID>
CHEMBL563784

>  <Molecule Max Phase>
0

>  <Molecular Weight>
388.94

>  <#RO5 Violations>
0

>  <AlogP>
3.09

>  <Compound Key>
1647

>  <Standard Type>
pKa_B1

>  <Standard Value>
8.5

>  <Comment>
'B1 Functional Group: Piperazine; Ionisation Formula: A0B1 (Functional Group: the part of the molecule the pKa refers to; Ionisation formula: AxBy where 'A' refers to acidic centers within the molecule that are appreciably ionised at a pH <= 11 and 'x' equals 0, 1 or 2; and 'B' refers to basic centers within the molecule that are appreciably ionised at a pH >= 2 and 'y' equals 0, 1, 2 or 3).'

>  <Potential Duplicate>
false

>  <Assay ChEMBL ID>
CHEMBL3301362

>  <Assay Description>
ASTRAZENECA: Most basic pKa value (pKa B1) determined by absorption and potentiometric titration using standard methodology from Sirius Analytical. Experimental range Bases: >= 2.

>  <Assay Type>
P

>  <BAO Format ID>
BAO_0000100

>  <BAO Label>
small-molecule physicochemical format

>  <Target ChEMBL ID>
CHEMBL2362975

>  <Target Name>
No relevant target

>  <Target Type>
NO TARGET

>  <Document ChEMBL ID>
CHEMBL3301361

>  <Source ID>
27

>  <Source Description>
AstraZeneca Deposited Data

>  <Strongest basic pKa>
8.77

>  <deltapKa>
-0.2663118454918205

>  <Strongest basic pKa_Taut>
8.77

>  <deltapKa_TAut>
-0.2663118454918205

$$$$

  Mrv1920 03272013312D          

 32 35  0  0  0  0            999 V2000
    7.8592   -1.2375    0.0000 O   0  0  0  0  0  0  0  0  0  0  0  0
    7.1447   -1.6500    0.0000 C   0  0  0  0  0  0  0  0  0  0  0  0
    6.4302   -1.2375    0.0000 O   0  0  0  0  0  0  0  0  0  0  0  0
    7.1447   -2.4750    0.0000 C   0  0  0  0  0  0  0  0  0  0  0  0
    7.8592   -2.8875    0.0000 C   0  0  0  0  0  0  0  0  0  0  0  0
    7.8592   -3.7125    0.0000 C   0  0  0  0  0  0  0  0  0  0  0  0
    7.1447   -4.1250    0.0000 C   0  0  0  0  0  0  0  0  0  0  0  0
    6.4302   -3.7125    0.0000 C   0  0  0  0  0  0  0  0  0  0  0  0
    5.7158   -4.1250    0.0000 C   0  0  0  0  0  0  0  0  0  0  0  0
    5.7158   -4.9500    0.0000 O   0  0  0  0  0  0  0  0  0  0  0  0
    5.0013   -3.7125    0.0000 N   0  0  0  0  0  0  0  0  0  0  0  0
    4.2868   -4.1250    0.0000 C   0  0  0  0  0  0  0  0  0  0  0  0
    3.5724   -3.7125    0.0000 C   0  0  0  0  0  0  0  0  0  0  0  0
    3.5724   -2.8875    0.0000 C   0  0  0  0  0  0  0  0  0  0  0  0
    2.8579   -2.4750    0.0000 N   0  0  0  0  0  0  0  0  0  0  0  0
    2.1434   -2.8875    0.0000 C   0  0  0  0  0  0  0  0  0  0  0  0
    1.4289   -2.4750    0.0000 C   0  0  0  0  0  0  0  0  0  0  0  0
    1.4289   -1.6500    0.0000 C   0  0  0  0  0  0  0  0  0  0  0  0
    0.7145   -1.2375    0.0000 O   0  0  0  0  0  0  0  0  0  0  0  0
    0.7145   -0.4125    0.0000 C   0  0  0  0  0  0  0  0  0  0  0  0
    0.0000    0.0000    0.0000 C   0  0  0  0  0  0  0  0  0  0  0  0
    0.0000    0.8250    0.0000 C   0  0  0  0  0  0  0  0  0  0  0  0
    0.7145    1.2375    0.0000 C   0  0  0  0  0  0  0  0  0  0  0  0
    0.7145    2.0625    0.0000 Cl  0  0  0  0  0  0  0  0  0  0  0  0
    1.4289    0.8250    0.0000 C   0  0  0  0  0  0  0  0  0  0  0  0
    2.1434    1.2375    0.0000 Cl  0  0  0  0  0  0  0  0  0  0  0  0
    1.4289    0.0000    0.0000 C   0  0  0  0  0  0  0  0  0  0  0  0
    2.1434   -1.2375    0.0000 C   0  0  0  0  0  0  0  0  0  0  0  0
    2.8579   -1.6500    0.0000 C   0  0  0  0  0  0  0  0  0  0  0  0
    4.2868   -2.4750    0.0000 C   0  0  0  0  0  0  0  0  0  0  0  0
    5.0013   -2.8875    0.0000 C   0  0  0  0  0  0  0  0  0  0  0  0
    6.4302   -2.8875    0.0000 C   0  0  0  0  0  0  0  0  0  0  0  0
  1  2  2  0  0  0  0
  2  3  1  0  0  0  0
  2  4  1  0  0  0  0
  4  5  2  0  0  0  0
  5  6  1  0  0  0  0
  6  7  2  0  0  0  0
  7  8  1  0  0  0  0
  8  9  1  0  0  0  0
  9 10  2  0  0  0  0
  9 11  1  0  0  0  0
 11 12  1  0  0  0  0
 12 13  1  0  0  0  0
 13 14  1  0  0  0  0
 14 15  1  0  0  0  0
 15 16  1  0  0  0  0
 16 17  1  0  0  0  0
 17 18  1  0  0  0  0
 18 19  1  0  0  0  0
 19 20  1  0  0  0  0
 20 21  2  0  0  0  0
 21 22  1  0  0  0  0
 22 23  2  0  0  0  0
 23 24  1  0  0  0  0
 23 25  1  0  0  0  0
 25 26  1  0  0  0  0
 25 27  2  0  0  0  0
 20 27  1  0  0  0  0
 18 28  1  0  0  0  0
 28 29  1  0  0  0  0
 15 29  1  0  0  0  0
 14 30  1  0  0  0  0
 30 31  1  0  0  0  0
 11 31  1  0  0  0  0
  8 32  2  0  0  0  0
  4 32  1  0  0  0  0
M  END
>  <StandardizerResult>
Tautomerize


>  <CdId>
61

>  <Mol Weight>
477.38

>  <Formula>
C24H26Cl2N2O4

>  <Molecule ChEMBL ID>
CHEMBL2171024

>  <Molecule Max Phase>
0

>  <Molecular Weight>
477.39

>  <#RO5 Violations>
0

>  <AlogP>
4.84

>  <Compound Key>
1563

>  <Standard Type>
pKa_B1

>  <Standard Value>
8.6

>  <Comment>
'B1 Functional Group: Piperidine; Ionisation Formula: A1B1 (Functional Group: the part of the molecule the pKa refers to; Ionisation formula: AxBy where 'A' refers to acidic centers within the molecule that are appreciably ionised at a pH <= 11 and 'x' equals 0, 1 or 2; and 'B' refers to basic centers within the molecule that are appreciably ionised at a pH >= 2 and 'y' equals 0, 1, 2 or 3).'

>  <Potential Duplicate>
false

>  <Assay ChEMBL ID>
CHEMBL3301362

>  <Assay Description>
ASTRAZENECA: Most basic pKa value (pKa B1) determined by absorption and potentiometric titration using standard methodology from Sirius Analytical. Experimental range Bases: >= 2.

>  <Assay Type>
P

>  <BAO Format ID>
BAO_0000100

>  <BAO Label>
small-molecule physicochemical format

>  <Target ChEMBL ID>
CHEMBL2362975

>  <Target Name>
No relevant target

>  <Target Type>
NO TARGET

>  <Document ChEMBL ID>
CHEMBL3301361

>  <Source ID>
27

>  <Source Description>
AstraZeneca Deposited Data

>  <Strongest basic pKa>
8.86

>  <deltapKa>
-0.25652721822578606

>  <Strongest basic pKa_Taut>
8.86

>  <deltapKa_TAut>
-0.25652721822578606

$$$$

  Mrv1920 03272013312D          

 28 32  0  0  0  0            999 V2000
    0.8518   -4.1335    0.0000 O   0  0  0  0  0  0  0  0  0  0  0  0
    0.1373   -3.7210    0.0000 C   0  0  0  0  0  0  0  0  0  0  0  0
    0.1373   -2.8960    0.0000 N   0  0  0  0  0  0  0  0  0  0  0  0
    0.8517   -2.4835    0.0000 C   0  0  0  0  0  0  0  0  0  0  0  0
    0.8517   -1.6585    0.0000 C   0  0  0  0  0  0  0  0  0  0  0  0
    0.1163   -2.0322    0.0000 C   0  0  0  0  0  0  0  0  0  0  0  0
    0.5657   -1.2419    0.0000 C   0  0  0  0  0  0  0  0  0  0  0  0
    0.5657   -0.4945    0.0000 C   0  0  0  0  0  0  0  0  0  0  0  0
    1.3012   -0.1208    0.0000 C   0  0  0  0  0  0  0  0  0  0  0  0
    2.0368   -0.4945    0.0000 C   0  0  0  0  0  0  0  0  0  0  0  0
    2.0368   -1.2419    0.0000 C   0  0  0  0  0  0  0  0  0  0  0  0
    1.3012   -1.6156    0.0000 C   0  0  0  0  0  0  0  0  0  0  0  0
    1.5873   -2.0322    0.0000 C   0  0  0  0  0  0  0  0  0  0  0  0
    0.8517   -0.9111    0.0000 C   0  0  0  0  0  0  0  0  0  0  0  0
   -0.5771   -4.1336    0.0000 C   0  0  0  0  0  0  0  0  0  0  0  0
   -0.5771   -4.9586    0.0000 C   0  0  0  0  0  0  0  0  0  0  0  0
   -1.2915   -5.3711    0.0000 C   0  0  0  0  0  0  0  0  0  0  0  0
   -1.2915   -6.1961    0.0000 C   0  0  0  0  0  0  0  0  0  0  0  0
   -2.0059   -6.6087    0.0000 C   0  0  0  0  0  0  0  0  0  0  0  0
   -2.0059   -7.4337    0.0000 C   0  0  0  0  0  0  0  0  0  0  0  0
   -2.7203   -7.8462    0.0000 C   0  0  0  0  0  0  0  0  0  0  0  0
   -3.4348   -7.4337    0.0000 N   0  0  0  0  0  0  0  0  0  0  0  0
   -3.4349   -6.6087    0.0000 C   0  0  0  0  0  0  0  0  0  0  0  0
   -2.7204   -6.1962    0.0000 C   0  0  0  0  0  0  0  0  0  0  0  0
   -2.0060   -4.9587    0.0000 C   0  0  0  0  0  0  0  0  0  0  0  0
   -2.0060   -4.1337    0.0000 C   0  0  0  0  0  0  0  0  0  0  0  0
   -1.2916   -3.7211    0.0000 C   0  0  0  0  0  0  0  0  0  0  0  0
   -1.2916   -2.8961    0.0000 Cl  0  0  0  0  0  0  0  0  0  0  0  0
  1  2  2  0  0  0  0
  2  3  1  0  0  0  0
  3  4  1  0  0  0  0
  4  5  1  0  0  0  0
  5  6  1  0  0  0  0
  6  7  1  0  0  0  0
  9 14  1  0  0  0  0
  8  9  1  0  0  0  0
  9 10  1  0  0  0  0
  5 13  1  0  0  0  0
 11 12  1  0  0  0  0
  7 12  1  0  0  0  0
 11 13  1  0  0  0  0
 10 11  1  0  0  0  0
  7  8  1  0  0  0  0
  5 14  1  0  0  0  0
  2 15  1  0  0  0  0
 15 16  2  0  0  0  0
 16 17  1  0  0  0  0
 17 18  1  0  0  0  0
 18 19  1  0  0  0  0
 19 20  1  0  0  0  0
 20 21  1  0  0  0  0
 21 22  1  0  0  0  0
 22 23  1  0  0  0  0
 23 24  1  0  0  0  0
 19 24  1  0  0  0  0
 17 25  2  0  0  0  0
 25 26  1  0  0  0  0
 26 27  2  0  0  0  0
 15 27  1  0  0  0  0
 27 28  1  0  0  0  0
M  END
>  <StandardizerResult>
Tautomerize


>  <CdId>
44

>  <Mol Weight>
400.99

>  <Formula>
C24H33ClN2O

>  <Molecule ChEMBL ID>
CHEMBL235581

>  <Molecule Max Phase>
0

>  <Molecular Weight>
400.99

>  <#RO5 Violations>
0

>  <AlogP>
4.83

>  <Compound Key>
1593

>  <Standard Type>
pKa_B1

>  <Standard Value>
10.1

>  <Comment>
'B1 Functional Group: Piperidine; Ionisation Formula: A0B1 (Functional Group: the part of the molecule the pKa refers to; Ionisation formula: AxBy where 'A' refers to acidic centers within the molecule that are appreciably ionised at a pH <= 11 and 'x' equals 0, 1 or 2; and 'B' refers to basic centers within the molecule that are appreciably ionised at a pH >= 2 and 'y' equals 0, 1, 2 or 3).'

>  <Potential Duplicate>
false

>  <Assay ChEMBL ID>
CHEMBL3301362

>  <Assay Description>
ASTRAZENECA: Most basic pKa value (pKa B1) determined by absorption and potentiometric titration using standard methodology from Sirius Analytical. Experimental range Bases: >= 2.

>  <Assay Type>
P

>  <BAO Format ID>
BAO_0000100

>  <BAO Label>
small-molecule physicochemical format

>  <Target ChEMBL ID>
CHEMBL2362975

>  <Target Name>
No relevant target

>  <Target Type>
NO TARGET

>  <Document ChEMBL ID>
CHEMBL3301361

>  <Source ID>
27

>  <Source Description>
AstraZeneca Deposited Data

>  <Strongest basic pKa>
10.35

>  <deltapKa>
-0.254753239721456

>  <Strongest basic pKa_Taut>
10.35

>  <deltapKa_TAut>
-0.254753239721456

$$$$

  Mrv1920 03272013312D          

 36 39  0  0  0  0            999 V2000
    9.2881   -2.8875    0.0000 C   0  0  0  0  0  0  0  0  0  0  0  0
    8.5737   -3.3000    0.0000 N   0  0  0  0  0  0  0  0  0  0  0  0
    7.8592   -2.8875    0.0000 C   0  0  0  0  0  0  0  0  0  0  0  0
    8.5737   -4.1250    0.0000 C   0  0  0  0  0  0  0  0  0  0  0  0
    9.2881   -4.5375    0.0000 C   0  0  0  0  0  0  0  0  0  0  0  0
    9.2881   -5.3625    0.0000 C   0  0  0  0  0  0  0  0  0  0  0  0
    8.5737   -5.7750    0.0000 C   0  0  0  0  0  0  0  0  0  0  0  0
    7.8592   -5.3625    0.0000 C   0  0  0  0  0  0  0  0  0  0  0  0
    7.8592   -4.5375    0.0000 C   0  0  0  0  0  0  0  0  0  0  0  0
    7.1447   -4.1250    0.0000 S   0  0  0  0  0  0  0  0  0  0  0  0
    7.5572   -3.4105    0.0000 O   0  0  0  0  0  0  0  0  0  0  0  0
    6.7322   -4.8395    0.0000 O   0  0  0  0  0  0  0  0  0  0  0  0
    6.4302   -3.7125    0.0000 N   0  0  0  0  0  0  0  0  0  0  0  0
    5.7158   -4.1250    0.0000 C   0  0  0  0  0  0  0  0  0  0  0  0
    5.7158   -4.9500    0.0000 O   0  0  0  0  0  0  0  0  0  0  0  0
    5.0013   -3.7125    0.0000 N   0  0  0  0  0  0  0  0  0  0  0  0
    4.2868   -4.1250    0.0000 C   0  0  0  0  0  0  0  0  0  0  0  0
    3.5724   -3.7125    0.0000 C   0  0  0  0  0  0  0  0  0  0  0  0
    3.5724   -2.8875    0.0000 C   0  0  0  0  0  0  0  0  0  0  0  0
    2.8579   -2.4750    0.0000 N   0  0  0  0  0  0  0  0  0  0  0  0
    2.1434   -2.8875    0.0000 C   0  0  0  0  0  0  0  0  0  0  0  0
    1.4289   -2.4750    0.0000 C   0  0  0  0  0  0  0  0  0  0  0  0
    1.4289   -1.6500    0.0000 C   0  0  0  0  0  0  0  0  0  0  0  0
    0.7145   -1.2375    0.0000 O   0  0  0  0  0  0  0  0  0  0  0  0
    0.7145   -0.4125    0.0000 C   0  0  0  0  0  0  0  0  0  0  0  0
    0.0000    0.0000    0.0000 C   0  0  0  0  0  0  0  0  0  0  0  0
    0.0000    0.8250    0.0000 C   0  0  0  0  0  0  0  0  0  0  0  0
    0.7145    1.2375    0.0000 C   0  0  0  0  0  0  0  0  0  0  0  0
    0.7145    2.0625    0.0000 Cl  0  0  0  0  0  0  0  0  0  0  0  0
    1.4289    0.8250    0.0000 C   0  0  0  0  0  0  0  0  0  0  0  0
    2.1434    1.2375    0.0000 Cl  0  0  0  0  0  0  0  0  0  0  0  0
    1.4289    0.0000    0.0000 C   0  0  0  0  0  0  0  0  0  0  0  0
    2.1434   -1.2375    0.0000 C   0  0  0  0  0  0  0  0  0  0  0  0
    2.8579   -1.6500    0.0000 C   0  0  0  0  0  0  0  0  0  0  0  0
    4.2868   -2.4750    0.0000 C   0  0  0  0  0  0  0  0  0  0  0  0
    5.0013   -2.8875    0.0000 C   0  0  0  0  0  0  0  0  0  0  0  0
  1  2  1  0  0  0  0
  2  3  1  0  0  0  0
  2  4  1  0  0  0  0
  4  5  2  0  0  0  0
  5  6  1  0  0  0  0
  6  7  2  0  0  0  0
  7  8  1  0  0  0  0
  8  9  2  0  0  0  0
  4  9  1  0  0  0  0
  9 10  1  0  0  0  0
 10 11  2  0  0  0  0
 10 12  2  0  0  0  0
 10 13  1  0  0  0  0
 13 14  1  0  0  0  0
 14 15  2  0  0  0  0
 14 16  1  0  0  0  0
 16 17  1  0  0  0  0
 17 18  1  0  0  0  0
 18 19  1  0  0  0  0
 19 20  1  0  0  0  0
 20 21  1  0  0  0  0
 21 22  1  0  0  0  0
 22 23  1  0  0  0  0
 23 24  1  0  0  0  0
 24 25  1  0  0  0  0
 25 26  2  0  0  0  0
 26 27  1  0  0  0  0
 27 28  2  0  0  0  0
 28 29  1  0  0  0  0
 28 30  1  0  0  0  0
 30 31  1  0  0  0  0
 30 32  2  0  0  0  0
 25 32  1  0  0  0  0
 23 33  1  0  0  0  0
 33 34  1  0  0  0  0
 20 34  1  0  0  0  0
 19 35  1  0  0  0  0
 35 36  1  0  0  0  0
 16 36  1  0  0  0  0
M  END
>  <StandardizerResult>
Tautomerize


>  <CdId>
53

>  <Mol Weight>
555.52

>  <Formula>
C25H32Cl2N4O4S

>  <Molecule ChEMBL ID>
CHEMBL2171041

>  <Molecule Max Phase>
0

>  <Molecular Weight>
555.53

>  <#RO5 Violations>
1

>  <AlogP>
4.47

>  <Compound Key>
2144

>  <Standard Type>
pKa_B1

>  <Standard Value>
8.6

>  <Comment>
'B1 Functional Group: Piperidine; Ionisation Formula: A1B1 (Functional Group: the part of the molecule the pKa refers to; Ionisation formula: AxBy where 'A' refers to acidic centers within the molecule that are appreciably ionised at a pH <= 11 and 'x' equals 0, 1 or 2; and 'B' refers to basic centers within the molecule that are appreciably ionised at a pH >= 2 and 'y' equals 0, 1, 2 or 3).'

>  <Potential Duplicate>
false

>  <Assay ChEMBL ID>
CHEMBL3301362

>  <Assay Description>
ASTRAZENECA: Most basic pKa value (pKa B1) determined by absorption and potentiometric titration using standard methodology from Sirius Analytical. Experimental range Bases: >= 2.

>  <Assay Type>
P

>  <BAO Format ID>
BAO_0000100

>  <BAO Label>
small-molecule physicochemical format

>  <Target ChEMBL ID>
CHEMBL2362975

>  <Target Name>
No relevant target

>  <Target Type>
NO TARGET

>  <Document ChEMBL ID>
CHEMBL3301361

>  <Source ID>
27

>  <Source Description>
AstraZeneca Deposited Data

>  <Strongest basic pKa>
8.84

>  <deltapKa>
-0.24125970396778662

>  <Strongest basic pKa_Taut>
8.84

>  <deltapKa_TAut>
-0.24125970396778662

$$$$

  Mrv1920 03272013312D          

 13 13  0  0  0  0            999 V2000
    0.7145    2.0625    0.0000 C   0  0  0  0  0  0  0  0  0  0  0  0
    0.7145    1.2375    0.0000 C   0  0  0  0  0  0  0  0  0  0  0  0
    1.4289    0.8250    0.0000 C   0  0  0  0  0  0  0  0  0  0  0  0
    1.4289    0.0000    0.0000 C   0  0  0  0  0  0  0  0  0  0  0  0
    0.7145   -0.4125    0.0000 C   0  0  0  0  0  0  0  0  0  0  0  0
    0.0000    0.0000    0.0000 C   0  0  0  0  0  0  0  0  0  0  0  0
   -0.7145   -0.4125    0.0000 C   0  0  0  0  0  0  0  0  0  0  0  0
    0.0000    0.8250    0.0000 C   0  0  0  0  0  0  0  0  0  0  0  0
   -0.7145    1.2375    0.0000 O   0  0  0  0  0  0  0  0  0  0  0  0
   -1.4289    0.8250    0.0000 C   0  0  0  0  0  0  0  0  0  0  0  0
   -2.1434    1.2375    0.0000 C   0  0  0  0  0  0  0  0  0  0  0  0
   -2.8579    0.8250    0.0000 C   0  0  0  0  0  0  0  0  0  0  0  0
   -2.1434    2.0625    0.0000 N   0  0  0  0  0  0  0  0  0  0  0  0
  1  2  1  0  0  0  0
  2  3  2  0  0  0  0
  3  4  1  0  0  0  0
  4  5  2  0  0  0  0
  5  6  1  0  0  0  0
  6  7  1  0  0  0  0
  6  8  2  0  0  0  0
  2  8  1  0  0  0  0
  8  9  1  0  0  0  0
  9 10  1  0  0  0  0
 10 11  1  0  0  0  0
 11 12  1  0  0  0  0
 11 13  1  0  0  0  0
M  END
>  <StandardizerResult>
Tautomerize


>  <CdId>
214

>  <Mol Weight>
179.26

>  <Formula>
C11H17NO

>  <Molecule ChEMBL ID>
CHEMBL558

>  <Molecule Name>
MEXILETINE

>  <Molecule Max Phase>
4

>  <Molecular Weight>
179.26

>  <#RO5 Violations>
0

>  <AlogP>
2.03

>  <Compound Key>
1369

>  <Standard Type>
pKa_B1

>  <Standard Value>
9.13

>  <Comment>
'B1 Functional Group: Primary amine; Ionisation Formula: A0B1 (Functional Group: the part of the molecule the pKa refers to; Ionisation formula: AxBy where 'A' refers to acidic centers within the molecule that are appreciably ionised at a pH <= 11 and 'x' equals 0, 1 or 2; and 'B' refers to basic centers within the molecule that are appreciably ionised at a pH >= 2 and 'y' equals 0, 1, 2 or 3).'

>  <Potential Duplicate>
false

>  <Assay ChEMBL ID>
CHEMBL3301362

>  <Assay Description>
ASTRAZENECA: Most basic pKa value (pKa B1) determined by absorption and potentiometric titration using standard methodology from Sirius Analytical. Experimental range Bases: >= 2.

>  <Assay Type>
P

>  <BAO Format ID>
BAO_0000100

>  <BAO Label>
small-molecule physicochemical format

>  <Target ChEMBL ID>
CHEMBL2362975

>  <Target Name>
No relevant target

>  <Target Type>
NO TARGET

>  <Document ChEMBL ID>
CHEMBL3301361

>  <Source ID>
27

>  <Source Description>
AstraZeneca Deposited Data

>  <Strongest basic pKa>
9.37

>  <deltapKa>
-0.23815011748970072

>  <Strongest basic pKa_Taut>
9.37

>  <deltapKa_TAut>
-0.23815011748970072

$$$$

  Mrv1920 03272013312D          

 35 38  0  0  0  0            999 V2000
   -5.8855   -0.1914    0.0000 C   0  0  0  0  0  0  0  0  0  0  0  0
   -5.8855   -1.0164    0.0000 C   0  0  0  0  0  0  0  0  0  0  0  0
   -6.7105   -1.0164    0.0000 C   0  0  0  0  0  0  0  0  0  0  0  0
   -5.0605   -1.0164    0.0000 C   0  0  0  0  0  0  0  0  0  0  0  0
   -5.8855   -1.8414    0.0000 C   0  0  0  0  0  0  0  0  0  0  0  0
   -5.1711   -2.2539    0.0000 C   0  0  0  0  0  0  0  0  0  0  0  0
   -5.1711   -3.0789    0.0000 C   0  0  0  0  0  0  0  0  0  0  0  0
   -5.8855   -3.4914    0.0000 C   0  0  0  0  0  0  0  0  0  0  0  0
   -5.8855   -4.3164    0.0000 C   0  0  0  0  0  0  0  0  0  0  0  0
   -6.6000   -4.7289    0.0000 O   0  0  0  0  0  0  0  0  0  0  0  0
   -5.1711   -4.7289    0.0000 C   0  0  0  0  0  0  0  0  0  0  0  0
   -5.1711   -5.5539    0.0000 C   0  0  0  0  0  0  0  0  0  0  0  0
   -4.4566   -5.9664    0.0000 C   0  0  0  0  0  0  0  0  0  0  0  0
   -4.4566   -6.7914    0.0000 N   0  0  0  0  0  0  0  0  0  0  0  0
   -3.7421   -7.2039    0.0000 C   0  0  0  0  0  0  0  0  0  0  0  0
   -3.7421   -8.0289    0.0000 C   0  0  0  0  0  0  0  0  0  0  0  0
   -4.4566   -8.4414    0.0000 C   0  0  0  0  0  0  0  0  0  0  0  0
   -4.4566   -9.2664    0.0000 C   0  0  0  0  0  0  0  0  0  0  0  0
   -5.2816   -9.2664    0.0000 O   0  0  0  0  0  0  0  0  0  0  0  0
   -4.4566  -10.0914    0.0000 C   0  0  0  0  0  0  0  0  0  0  0  0
   -3.7421  -10.5039    0.0000 C   0  0  0  0  0  0  0  0  0  0  0  0
   -3.7421  -11.3289    0.0000 C   0  0  0  0  0  0  0  0  0  0  0  0
   -4.4566  -11.7414    0.0000 C   0  0  0  0  0  0  0  0  0  0  0  0
   -5.1711  -11.3289    0.0000 C   0  0  0  0  0  0  0  0  0  0  0  0
   -5.1711  -10.5039    0.0000 C   0  0  0  0  0  0  0  0  0  0  0  0
   -3.6316   -9.2664    0.0000 C   0  0  0  0  0  0  0  0  0  0  0  0
   -3.2191   -8.5520    0.0000 C   0  0  0  0  0  0  0  0  0  0  0  0
   -2.3941   -8.5520    0.0000 C   0  0  0  0  0  0  0  0  0  0  0  0
   -1.9816   -9.2664    0.0000 C   0  0  0  0  0  0  0  0  0  0  0  0
   -2.3941   -9.9809    0.0000 C   0  0  0  0  0  0  0  0  0  0  0  0
   -3.2191   -9.9809    0.0000 C   0  0  0  0  0  0  0  0  0  0  0  0
   -5.1711   -8.0289    0.0000 C   0  0  0  0  0  0  0  0  0  0  0  0
   -5.1711   -7.2039    0.0000 C   0  0  0  0  0  0  0  0  0  0  0  0
   -6.6000   -3.0789    0.0000 C   0  0  0  0  0  0  0  0  0  0  0  0
   -6.6000   -2.2539    0.0000 C   0  0  0  0  0  0  0  0  0  0  0  0
  1  2  1  0  0  0  0
  2  3  1  0  0  0  0
  2  4  1  0  0  0  0
  2  5  1  0  0  0  0
  5  6  2  0  0  0  0
  6  7  1  0  0  0  0
  7  8  2  0  0  0  0
  8  9  1  0  0  0  0
  9 10  1  0  0  0  0
  9 11  1  0  0  0  0
 11 12  1  0  0  0  0
 12 13  1  0  0  0  0
 13 14  1  0  0  0  0
 14 15  1  0  0  0  0
 15 16  1  0  0  0  0
 16 17  1  0  0  0  0
 17 18  1  0  0  0  0
 18 19  1  0  0  0  0
 18 20  1  0  0  0  0
 20 21  2  0  0  0  0
 21 22  1  0  0  0  0
 22 23  2  0  0  0  0
 23 24  1  0  0  0  0
 24 25  2  0  0  0  0
 20 25  1  0  0  0  0
 18 26  1  0  0  0  0
 26 27  2  0  0  0  0
 27 28  1  0  0  0  0
 28 29  2  0  0  0  0
 29 30  1  0  0  0  0
 30 31  2  0  0  0  0
 26 31  1  0  0  0  0
 17 32  1  0  0  0  0
 32 33  1  0  0  0  0
 14 33  1  0  0  0  0
  8 34  1  0  0  0  0
 34 35  2  0  0  0  0
  5 35  1  0  0  0  0
M  END
>  <StandardizerResult>
Tautomerize


>  <CdId>
188

>  <Mol Weight>
471.69

>  <Formula>
C32H41NO2

>  <Molecule ChEMBL ID>
CHEMBL17157

>  <Molecule Name>
TERFENADINE

>  <Molecule Max Phase>
4

>  <Molecular Weight>
471.69

>  <#RO5 Violations>
1

>  <AlogP>
6.45

>  <Compound Key>
1573

>  <Standard Type>
pKa_B1

>  <Standard Value>
8.8

>  <Comment>
'B1 Functional Group: Piperidine; Ionisation Formula: A0B1 (Functional Group: the part of the molecule the pKa refers to; Ionisation formula: AxBy where 'A' refers to acidic centers within the molecule that are appreciably ionised at a pH <= 11 and 'x' equals 0, 1 or 2; and 'B' refers to basic centers within the molecule that are appreciably ionised at a pH >= 2 and 'y' equals 0, 1, 2 or 3).'

>  <Potential Duplicate>
false

>  <Assay ChEMBL ID>
CHEMBL3301362

>  <Assay Description>
ASTRAZENECA: Most basic pKa value (pKa B1) determined by absorption and potentiometric titration using standard methodology from Sirius Analytical. Experimental range Bases: >= 2.

>  <Assay Type>
P

>  <BAO Format ID>
BAO_0000100

>  <BAO Label>
small-molecule physicochemical format

>  <Target ChEMBL ID>
CHEMBL2362975

>  <Target Name>
No relevant target

>  <Target Type>
NO TARGET

>  <Document ChEMBL ID>
CHEMBL3301361

>  <Source ID>
27

>  <Source Description>
AstraZeneca Deposited Data

>  <Strongest basic pKa>
9.02

>  <deltapKa>
-0.22298591531734857

>  <Strongest basic pKa_Taut>
9.02

>  <deltapKa_TAut>
-0.22298591531734857

$$$$

  Mrv1920 03272013312D          

 22 23  0  0  1  0            999 V2000
    0.0000    0.8250    0.0000 N   0  0  0  0  0  0  0  0  0  0  0  0
    0.7145    1.2375    0.0000 C   0  0  0  0  0  0  0  0  0  0  0  0
    1.4289    1.6500    0.0000 C   0  0  0  0  0  0  0  0  0  0  0  0
    1.4289    2.4750    0.0000 C   0  0  0  0  0  0  0  0  0  0  0  0
    2.1434    2.8875    0.0000 C   0  0  0  0  0  0  0  0  0  0  0  0
    2.8579    2.4750    0.0000 C   0  0  0  0  0  0  0  0  0  0  0  0
    3.5724    2.8875    0.0000 C   0  0  0  0  0  0  0  0  0  0  0  0
    4.2868    3.3000    0.0000 F   0  0  0  0  0  0  0  0  0  0  0  0
    3.1599    3.6020    0.0000 F   0  0  0  0  0  0  0  0  0  0  0  0
    3.9849    2.1730    0.0000 F   0  0  0  0  0  0  0  0  0  0  0  0
    2.8579    1.6500    0.0000 N   0  0  0  0  0  0  0  0  0  0  0  0
    2.1434    1.2375    0.0000 C   0  0  0  0  0  0  0  0  0  0  0  0
    2.1434    0.4125    0.0000 O   0  0  0  0  0  0  0  0  0  0  0  0
    2.8579    0.0000    0.0000 C   0  0  2  0  0  0  0  0  0  0  0  0
    3.5724    0.4125    0.0000 C   0  0  0  0  0  0  0  0  0  0  0  0
    4.2868    0.0000    0.0000 C   0  0  0  0  0  0  0  0  0  0  0  0
    4.2868   -0.8250    0.0000 N   0  0  0  0  0  0  0  0  0  0  0  0
    2.8579   -0.8250    0.0000 C   0  0  0  0  0  0  0  0  0  0  0  0
    3.5253   -1.3099    0.0000 C   0  0  0  0  0  0  0  0  0  0  0  0
    3.2704   -2.0945    0.0000 C   0  0  0  0  0  0  0  0  0  0  0  0
    2.4454   -2.0945    0.0000 N   0  0  0  0  0  0  0  0  0  0  0  0
    2.1904   -1.3099    0.0000 O   0  0  0  0  0  0  0  0  0  0  0  0
  1  2  3  0  0  0  0
  2  3  1  0  0  0  0
  3  4  2  0  0  0  0
  4  5  1  0  0  0  0
  5  6  2  0  0  0  0
  6  7  1  0  0  0  0
  7  8  1  0  0  0  0
  7  9  1  0  0  0  0
  7 10  1  0  0  0  0
  6 11  1  0  0  0  0
 11 12  2  0  0  0  0
  3 12  1  0  0  0  0
 12 13  1  0  0  0  0
 14 13  1  6  0  0  0
 14 15  1  0  0  0  0
 15 16  1  0  0  0  0
 16 17  1  0  0  0  0
 14 18  1  0  0  0  0
 18 19  2  0  0  0  0
 19 20  1  0  0  0  0
 20 21  2  0  0  0  0
 21 22  1  0  0  0  0
 18 22  1  0  0  0  0
M  END
>  <StandardizerResult>
Tautomerize


>  <CdId>
85

>  <Mol Weight>
312.25

>  <Formula>
C13H11F3N4O2

>  <Molecule ChEMBL ID>
CHEMBL1789187

>  <Molecule Max Phase>
0

>  <Molecular Weight>
312.25

>  <#RO5 Violations>
0

>  <AlogP>
2.43

>  <Compound Key>
1303

>  <Standard Type>
pKa_B1

>  <Standard Value>
9.5

>  <Comment>
'B1 Functional Group: Pyridine; Ionisation Formula: A0B1 (Functional Group: the part of the molecule the pKa refers to; Ionisation formula: AxBy where 'A' refers to acidic centers within the molecule that are appreciably ionised at a pH <= 11 and 'x' equals 0, 1 or 2; and 'B' refers to basic centers within the molecule that are appreciably ionised at a pH >= 2 and 'y' equals 0, 1, 2 or 3).'

>  <Potential Duplicate>
false

>  <Assay ChEMBL ID>
CHEMBL3301362

>  <Assay Description>
ASTRAZENECA: Most basic pKa value (pKa B1) determined by absorption and potentiometric titration using standard methodology from Sirius Analytical. Experimental range Bases: >= 2.

>  <Assay Type>
P

>  <BAO Format ID>
BAO_0000100

>  <BAO Label>
small-molecule physicochemical format

>  <Target ChEMBL ID>
CHEMBL2362975

>  <Target Name>
No relevant target

>  <Target Type>
NO TARGET

>  <Document ChEMBL ID>
CHEMBL3301361

>  <Source ID>
27

>  <Source Description>
AstraZeneca Deposited Data

>  <Strongest basic pKa>
9.72

>  <deltapKa>
-0.21548072677747854

>  <Strongest basic pKa_Taut>
9.72

>  <deltapKa_TAut>
-0.21548072677747854

$$$$

  Mrv1920 03272013312D          

 20 21  0  0  1  0            999 V2000
    3.5724   -0.4125    0.0000 C   0  0  0  0  0  0  0  0  0  0  0  0
    2.8579    0.0000    0.0000 C   0  0  0  0  0  0  0  0  0  0  0  0
    2.8579    0.8250    0.0000 C   0  0  0  0  0  0  0  0  0  0  0  0
    2.1434    1.2375    0.0000 C   0  0  0  0  0  0  0  0  0  0  0  0
    1.4289    0.8250    0.0000 C   0  0  0  0  0  0  0  0  0  0  0  0
    0.7145    1.2375    0.0000 C   0  0  0  0  0  0  0  0  0  0  0  0
    0.0000    1.6500    0.0000 N   0  0  0  0  0  0  0  0  0  0  0  0
    1.4289    0.0000    0.0000 C   0  0  0  0  0  0  0  0  0  0  0  0
    0.7145   -0.4125    0.0000 S   0  0  0  0  0  0  0  0  0  0  0  0
    0.7145   -1.2375    0.0000 C   0  0  2  0  0  0  0  0  0  0  0  0
    1.4289   -1.6500    0.0000 C   0  0  0  0  0  0  0  0  0  0  0  0
    2.1434   -1.2375    0.0000 C   0  0  0  0  0  0  0  0  0  0  0  0
    2.8579   -1.6500    0.0000 N   0  0  0  0  0  0  0  0  0  0  0  0
    0.0000   -1.6500    0.0000 C   0  0  0  0  0  0  0  0  0  0  0  0
    0.0000   -2.4750    0.0000 C   0  0  0  0  0  0  0  0  0  0  0  0
   -0.7145   -2.8875    0.0000 C   0  0  0  0  0  0  0  0  0  0  0  0
   -1.4289   -2.4750    0.0000 C   0  0  0  0  0  0  0  0  0  0  0  0
   -1.4289   -1.6500    0.0000 C   0  0  0  0  0  0  0  0  0  0  0  0
   -0.7145   -1.2375    0.0000 C   0  0  0  0  0  0  0  0  0  0  0  0
    2.1434   -0.4125    0.0000 N   0  0  0  0  0  0  0  0  0  0  0  0
  1  2  1  0  0  0  0
  2  3  2  0  0  0  0
  3  4  1  0  0  0  0
  4  5  2  0  0  0  0
  5  6  1  0  0  0  0
  6  7  3  0  0  0  0
  5  8  1  0  0  0  0
  8  9  1  0  0  0  0
 10  9  1  6  0  0  0
 10 11  1  0  0  0  0
 11 12  1  0  0  0  0
 12 13  1  0  0  0  0
 10 14  1  0  0  0  0
 14 15  2  0  0  0  0
 15 16  1  0  0  0  0
 16 17  2  0  0  0  0
 17 18  1  0  0  0  0
 18 19  2  0  0  0  0
 14 19  1  0  0  0  0
  8 20  2  0  0  0  0
  2 20  1  0  0  0  0
M  END
>  <StandardizerResult>
Tautomerize


>  <CdId>
121

>  <Mol Weight>
283.39

>  <Formula>
C16H17N3S

>  <Molecule ChEMBL ID>
CHEMBL1789327

>  <Molecule Max Phase>
0

>  <Molecular Weight>
283.4

>  <#RO5 Violations>
0

>  <AlogP>
3.44

>  <Compound Key>
1295

>  <Standard Type>
pKa_B1

>  <Standard Value>
9.8

>  <Comment>
'B1 Functional Group: Primary amine; Ionisation Formula: A0B1 (Functional Group: the part of the molecule the pKa refers to; Ionisation formula: AxBy where 'A' refers to acidic centers within the molecule that are appreciably ionised at a pH <= 11 and 'x' equals 0, 1 or 2; and 'B' refers to basic centers within the molecule that are appreciably ionised at a pH >= 2 and 'y' equals 0, 1, 2 or 3).'

>  <Potential Duplicate>
false

>  <Assay ChEMBL ID>
CHEMBL3301362

>  <Assay Description>
ASTRAZENECA: Most basic pKa value (pKa B1) determined by absorption and potentiometric titration using standard methodology from Sirius Analytical. Experimental range Bases: >= 2.

>  <Assay Type>
P

>  <BAO Format ID>
BAO_0000100

>  <BAO Label>
small-molecule physicochemical format

>  <Target ChEMBL ID>
CHEMBL2362975

>  <Target Name>
No relevant target

>  <Target Type>
NO TARGET

>  <Document ChEMBL ID>
CHEMBL3301361

>  <Source ID>
27

>  <Source Description>
AstraZeneca Deposited Data

>  <Strongest basic pKa>
10.01

>  <deltapKa>
-0.21238774600648824

>  <Strongest basic pKa_Taut>
10.01

>  <deltapKa_TAut>
-0.21238774600648824

$$$$

  Mrv1920 03272013312D          

 24 24  0  0  0  0            999 V2000
   -3.5724   -1.2375    0.0000 C   0  0  0  0  0  0  0  0  0  0  0  0
   -2.8579   -0.8250    0.0000 C   0  0  0  0  0  0  0  0  0  0  0  0
   -2.8579    0.0000    0.0000 C   0  0  0  0  0  0  0  0  0  0  0  0
   -2.1434    0.4125    0.0000 C   0  0  0  0  0  0  0  0  0  0  0  0
   -1.4289    0.0000    0.0000 O   0  0  0  0  0  0  0  0  0  0  0  0
   -2.1434    1.2375    0.0000 N   0  0  0  0  0  0  0  0  0  0  0  0
   -1.4289    1.6500    0.0000 C   0  0  0  0  0  0  0  0  0  0  0  0
   -1.4289    2.4750    0.0000 C   0  0  0  0  0  0  0  0  0  0  0  0
   -0.7145    2.8875    0.0000 C   0  0  0  0  0  0  0  0  0  0  0  0
    0.0000    2.4750    0.0000 C   0  0  0  0  0  0  0  0  0  0  0  0
    0.7145    2.8875    0.0000 O   0  0  0  0  0  0  0  0  0  0  0  0
    1.4289    2.4750    0.0000 C   0  0  0  0  0  0  0  0  0  0  0  0
    2.1434    2.8875    0.0000 C   0  0  0  0  0  0  0  0  0  0  0  0
    2.1434    3.7125    0.0000 O   0  0  0  0  0  0  0  0  0  0  0  0
    2.8579    2.4750    0.0000 C   0  0  0  0  0  0  0  0  0  0  0  0
    3.5724    2.8875    0.0000 N   0  0  0  0  0  0  0  0  0  0  0  0
    4.2868    2.4750    0.0000 C   0  0  0  0  0  0  0  0  0  0  0  0
    5.0013    2.8875    0.0000 C   0  0  0  0  0  0  0  0  0  0  0  0
    4.2868    1.6500    0.0000 C   0  0  0  0  0  0  0  0  0  0  0  0
    0.0000    1.6500    0.0000 C   0  0  0  0  0  0  0  0  0  0  0  0
    0.7145    1.2375    0.0000 C   0  0  0  0  0  0  0  0  0  0  0  0
    0.7145    0.4125    0.0000 C   0  0  0  0  0  0  0  0  0  0  0  0
    1.4289    1.6500    0.0000 O   0  0  0  0  0  0  0  0  0  0  0  0
   -0.7145    1.2375    0.0000 C   0  0  0  0  0  0  0  0  0  0  0  0
  1  2  1  0  0  0  0
  2  3  1  0  0  0  0
  3  4  1  0  0  0  0
  4  5  2  0  0  0  0
  4  6  1  0  0  0  0
  6  7  1  0  0  0  0
  7  8  2  0  0  0  0
  8  9  1  0  0  0  0
  9 10  2  0  0  0  0
 10 11  1  0  0  0  0
 11 12  1  0  0  0  0
 12 13  1  0  0  0  0
 13 14  1  0  0  0  0
 13 15  1  0  0  0  0
 15 16  1  0  0  0  0
 16 17  1  0  0  0  0
 17 18  1  0  0  0  0
 17 19  1  0  0  0  0
 10 20  1  0  0  0  0
 20 21  1  0  0  0  0
 21 22  1  0  0  0  0
 21 23  2  0  0  0  0
 20 24  2  0  0  0  0
  7 24  1  0  0  0  0
M  END
>  <StandardizerResult>
Tautomerize


>  <CdId>
48

>  <Mol Weight>
336.43

>  <Formula>
C18H28N2O4

>  <Molecule ChEMBL ID>
CHEMBL642

>  <Molecule Name>
ACEBUTOLOL

>  <Molecule Max Phase>
4

>  <Molecular Weight>
336.43

>  <#RO5 Violations>
0

>  <AlogP>
2.37

>  <Compound Key>
788

>  <Standard Type>
pKa_B1

>  <Standard Value>
9.45

>  <Comment>
'B1 Functional Group: Secondary amine; Ionisation Formula: A0B1 (Functional Group: the part of the molecule the pKa refers to; Ionisation formula: AxBy where 'A' refers to acidic centers within the molecule that are appreciably ionised at a pH <= 11 and 'x' equals 0, 1 or 2; and 'B' refers to basic centers within the molecule that are appreciably ionised at a pH >= 2 and 'y' equals 0, 1, 2 or 3).'

>  <Potential Duplicate>
false

>  <Assay ChEMBL ID>
CHEMBL3301362

>  <Assay Description>
ASTRAZENECA: Most basic pKa value (pKa B1) determined by absorption and potentiometric titration using standard methodology from Sirius Analytical. Experimental range Bases: >= 2.

>  <Assay Type>
P

>  <BAO Format ID>
BAO_0000100

>  <BAO Label>
small-molecule physicochemical format

>  <Target ChEMBL ID>
CHEMBL2362975

>  <Target Name>
No relevant target

>  <Target Type>
NO TARGET

>  <Document ChEMBL ID>
CHEMBL3301361

>  <Source ID>
27

>  <Source Description>
AstraZeneca Deposited Data

>  <Strongest basic pKa>
9.65

>  <deltapKa>
-0.20188609947632052

>  <Strongest basic pKa_Taut>
9.65

>  <deltapKa_TAut>
-0.20188609947632052

$$$$

  Mrv1920 03272013312D          

 11 11  0  0  0  0            999 V2000
    0.0000    2.4750    0.0000 N   0  0  0  0  0  0  0  0  0  0  0  0
    0.7145    2.0625    0.0000 C   0  0  0  0  0  0  0  0  0  0  0  0
    0.7145    1.2375    0.0000 C   0  0  0  0  0  0  0  0  0  0  0  0
    1.4289    0.8250    0.0000 C   0  0  0  0  0  0  0  0  0  0  0  0
    1.4289    0.0000    0.0000 C   0  0  0  0  0  0  0  0  0  0  0  0
    0.7145   -0.4125    0.0000 C   0  0  0  0  0  0  0  0  0  0  0  0
    0.7145   -1.2375    0.0000 C   0  0  0  0  0  0  0  0  0  0  0  0
    1.4289   -1.6500    0.0000 O   0  0  0  0  0  0  0  0  0  0  0  0
    0.0000   -1.6500    0.0000 O   0  0  0  0  0  0  0  0  0  0  0  0
    0.0000    0.0000    0.0000 C   0  0  0  0  0  0  0  0  0  0  0  0
    0.0000    0.8250    0.0000 C   0  0  0  0  0  0  0  0  0  0  0  0
  1  2  1  0  0  0  0
  2  3  1  0  0  0  0
  3  4  1  0  0  0  0
  4  5  1  0  0  0  0
  5  6  1  0  0  0  0
  6  7  1  0  0  0  0
  7  8  2  0  0  0  0
  7  9  1  0  0  0  0
  6 10  1  0  0  0  0
 10 11  1  0  0  0  0
  3 11  1  0  0  0  0
M  END
>  <StandardizerResult>
Tautomerize


>  <CdId>
205

>  <Mol Weight>
157.21

>  <Formula>
C8H15NO2

>  <Molecule ChEMBL ID>
CHEMBL292500

>  <Molecule Max Phase>
0

>  <Molecular Weight>
157.21

>  <#RO5 Violations>
0

>  <AlogP>
0.84

>  <Compound Key>
462

>  <Standard Type>
pKa_B1

>  <Standard Value>
10.02

>  <Comment>
'B1 Functional Group: Primary amine; Ionisation Formula: A1B1 (Functional Group: the part of the molecule the pKa refers to; Ionisation formula: AxBy where 'A' refers to acidic centers within the molecule that are appreciably ionised at a pH <= 11 and 'x' equals 0, 1 or 2; and 'B' refers to basic centers within the molecule that are appreciably ionised at a pH >= 2 and 'y' equals 0, 1, 2 or 3).'

>  <Potential Duplicate>
false

>  <Assay ChEMBL ID>
CHEMBL3301362

>  <Assay Description>
ASTRAZENECA: Most basic pKa value (pKa B1) determined by absorption and potentiometric titration using standard methodology from Sirius Analytical. Experimental range Bases: >= 2.

>  <Assay Type>
P

>  <BAO Format ID>
BAO_0000100

>  <BAO Label>
small-molecule physicochemical format

>  <Target ChEMBL ID>
CHEMBL2362975

>  <Target Name>
No relevant target

>  <Target Type>
NO TARGET

>  <Document ChEMBL ID>
CHEMBL3301361

>  <Source ID>
27

>  <Source Description>
AstraZeneca Deposited Data

>  <Strongest basic pKa>
10.22

>  <deltapKa>
-0.20023333206974137

>  <Strongest basic pKa_Taut>
10.22

>  <deltapKa_TAut>
-0.20023333206974137

$$$$

  Mrv1920 03272013312D          

 24 27  0  0  0  0            999 V2000
    0.0000   -2.4750    0.0000 O   0  0  0  0  0  0  0  0  0  0  0  0
    0.0000   -1.6500    0.0000 C   0  0  0  0  0  0  0  0  0  0  0  0
   -0.7145   -1.2375    0.0000 O   0  0  0  0  0  0  0  0  0  0  0  0
    0.7145   -1.2375    0.0000 C   0  0  0  0  0  0  0  0  0  0  0  0
    0.7145   -0.4125    0.0000 C   0  0  0  0  0  0  0  0  0  0  0  0
    1.4289    0.0000    0.0000 N   0  0  0  0  0  0  0  0  0  0  0  0
    1.4289    0.8250    0.0000 C   0  0  0  0  0  0  0  0  0  0  0  0
    1.0164    1.5395    0.0000 C   0  0  0  0  0  0  0  0  0  0  0  0
    1.8414    1.5395    0.0000 C   0  0  0  0  0  0  0  0  0  0  0  0
    2.1434   -0.4125    0.0000 C   0  0  0  0  0  0  0  0  0  0  0  0
    2.8579    0.0000    0.0000 C   0  0  0  0  0  0  0  0  0  0  0  0
    3.5724   -0.4125    0.0000 C   0  0  0  0  0  0  0  0  0  0  0  0
    4.2868    0.0000    0.0000 N   0  0  0  0  0  0  0  0  0  0  0  0
    4.2868    0.8250    0.0000 C   0  0  0  0  0  0  0  0  0  0  0  0
    5.0013    1.2375    0.0000 C   0  0  0  0  0  0  0  0  0  0  0  0
    5.7158    0.8250    0.0000 N   0  0  0  0  0  0  0  0  0  0  0  0
    5.7158    0.0000    0.0000 C   0  0  0  0  0  0  0  0  0  0  0  0
    5.0013   -0.4125    0.0000 C   0  0  0  0  0  0  0  0  0  0  0  0
    3.5724   -1.2375    0.0000 C   0  0  0  0  0  0  0  0  0  0  0  0
    4.2868   -1.6500    0.0000 F   0  0  0  0  0  0  0  0  0  0  0  0
    2.8579   -1.6500    0.0000 C   0  0  0  0  0  0  0  0  0  0  0  0
    2.1434   -1.2375    0.0000 C   0  0  0  0  0  0  0  0  0  0  0  0
    1.4289   -1.6500    0.0000 C   0  0  0  0  0  0  0  0  0  0  0  0
    1.4289   -2.4750    0.0000 O   0  0  0  0  0  0  0  0  0  0  0  0
  1  2  2  0  0  0  0
  2  3  1  0  0  0  0
  2  4  1  0  0  0  0
  4  5  2  0  0  0  0
  5  6  1  0  0  0  0
  6  7  1  0  0  0  0
  7  8  1  0  0  0  0
  8  9  1  0  0  0  0
  7  9  1  0  0  0  0
  6 10  1  0  0  0  0
 10 11  2  0  0  0  0
 11 12  1  0  0  0  0
 12 13  1  0  0  0  0
 13 14  1  0  0  0  0
 14 15  1  0  0  0  0
 15 16  1  0  0  0  0
 16 17  1  0  0  0  0
 17 18  1  0  0  0  0
 13 18  1  0  0  0  0
 12 19  2  0  0  0  0
 19 20  1  0  0  0  0
 19 21  1  0  0  0  0
 21 22  2  0  0  0  0
 10 22  1  0  0  0  0
 22 23  1  0  0  0  0
  4 23  1  0  0  0  0
 23 24  2  0  0  0  0
M  END
>  <StandardizerResult>
Tautomerize


>  <CdId>
172

>  <Mol Weight>
331.35

>  <Formula>
C17H18FN3O3

>  <Molecule ChEMBL ID>
CHEMBL8

>  <Molecule Name>
CIPROFLOXACIN

>  <Molecule Max Phase>
4

>  <Molecular Weight>
331.35

>  <#RO5 Violations>
0

>  <AlogP>
1.58

>  <Compound Key>
618

>  <Standard Type>
pKa_B1

>  <Standard Value>
8.57

>  <Comment>
'B1 Functional Group: Piperazine; Ionisation Formula: A1B1 (Functional Group: the part of the molecule the pKa refers to; Ionisation formula: AxBy where 'A' refers to acidic centers within the molecule that are appreciably ionised at a pH <= 11 and 'x' equals 0, 1 or 2; and 'B' refers to basic centers within the molecule that are appreciably ionised at a pH >= 2 and 'y' equals 0, 1, 2 or 3).'

>  <Potential Duplicate>
false

>  <Assay ChEMBL ID>
CHEMBL3301362

>  <Assay Description>
ASTRAZENECA: Most basic pKa value (pKa B1) determined by absorption and potentiometric titration using standard methodology from Sirius Analytical. Experimental range Bases: >= 2.

>  <Assay Type>
P

>  <BAO Format ID>
BAO_0000100

>  <BAO Label>
small-molecule physicochemical format

>  <Target ChEMBL ID>
CHEMBL2362975

>  <Target Name>
No relevant target

>  <Target Type>
NO TARGET

>  <Document ChEMBL ID>
CHEMBL3301361

>  <Source ID>
27

>  <Source Description>
AstraZeneca Deposited Data

>  <Strongest basic pKa>
8.77

>  <deltapKa>
-0.1952893450195301

>  <Strongest basic pKa_Taut>
8.77

>  <deltapKa_TAut>
-0.1952893450195301

$$$$

  Mrv1920 03272013312D          

 33 36  0  0  0  0            999 V2000
    0.0000   -1.6500    0.0000 O   0  0  0  0  0  0  0  0  0  0  0  0
    0.7145   -1.2375    0.0000 C   0  0  0  0  0  0  0  0  0  0  0  0
    1.4289   -1.6500    0.0000 N   0  0  0  0  0  0  0  0  0  0  0  0
    1.4289   -2.4750    0.0000 S   0  0  0  0  0  0  0  0  0  0  0  0
    2.2539   -2.4750    0.0000 O   0  0  0  0  0  0  0  0  0  0  0  0
    0.6039   -2.4750    0.0000 O   0  0  0  0  0  0  0  0  0  0  0  0
    1.4289   -3.3000    0.0000 N   0  0  0  0  0  0  0  0  0  0  0  0
    2.1434   -3.7125    0.0000 C   0  0  0  0  0  0  0  0  0  0  0  0
    2.1434   -4.5375    0.0000 C   0  0  0  0  0  0  0  0  0  0  0  0
    1.4289   -4.9500    0.0000 C   0  0  0  0  0  0  0  0  0  0  0  0
    1.4289   -5.7750    0.0000 N   0  0  0  0  0  0  0  0  0  0  0  0
    2.1434   -6.1875    0.0000 C   0  0  0  0  0  0  0  0  0  0  0  0
    2.1434   -7.0125    0.0000 C   0  0  0  0  0  0  0  0  0  0  0  0
    1.4289   -7.4250    0.0000 C   0  0  0  0  0  0  0  0  0  0  0  0
    1.4289   -8.2500    0.0000 O   0  0  0  0  0  0  0  0  0  0  0  0
    0.7145   -8.6625    0.0000 C   0  0  0  0  0  0  0  0  0  0  0  0
    0.7145   -9.4875    0.0000 C   0  0  0  0  0  0  0  0  0  0  0  0
    0.0000   -9.9000    0.0000 C   0  0  0  0  0  0  0  0  0  0  0  0
   -0.7145   -9.4875    0.0000 C   0  0  0  0  0  0  0  0  0  0  0  0
   -1.4289   -9.9000    0.0000 Cl  0  0  0  0  0  0  0  0  0  0  0  0
   -0.7145   -8.6625    0.0000 C   0  0  0  0  0  0  0  0  0  0  0  0
   -1.4289   -8.2500    0.0000 Cl  0  0  0  0  0  0  0  0  0  0  0  0
    0.0000   -8.2500    0.0000 C   0  0  0  0  0  0  0  0  0  0  0  0
    0.7145   -7.0125    0.0000 C   0  0  0  0  0  0  0  0  0  0  0  0
    0.7145   -6.1875    0.0000 C   0  0  0  0  0  0  0  0  0  0  0  0
    0.7145   -4.5375    0.0000 C   0  0  0  0  0  0  0  0  0  0  0  0
    0.7145   -3.7125    0.0000 C   0  0  0  0  0  0  0  0  0  0  0  0
    0.7145   -0.4125    0.0000 C   0  0  0  0  0  0  0  0  0  0  0  0
    0.0000    0.0000    0.0000 C   0  0  0  0  0  0  0  0  0  0  0  0
    0.0000    0.8250    0.0000 C   0  0  0  0  0  0  0  0  0  0  0  0
    0.7145    1.2375    0.0000 C   0  0  0  0  0  0  0  0  0  0  0  0
    1.4289    0.8250    0.0000 C   0  0  0  0  0  0  0  0  0  0  0  0
    1.4289    0.0000    0.0000 C   0  0  0  0  0  0  0  0  0  0  0  0
  1  2  2  0  0  0  0
  2  3  1  0  0  0  0
  3  4  1  0  0  0  0
  4  5  2  0  0  0  0
  4  6  2  0  0  0  0
  4  7  1  0  0  0  0
  7  8  1  0  0  0  0
  8  9  1  0  0  0  0
  9 10  1  0  0  0  0
 10 11  1  0  0  0  0
 11 12  1  0  0  0  0
 12 13  1  0  0  0  0
 13 14  1  0  0  0  0
 14 15  1  0  0  0  0
 15 16  1  0  0  0  0
 16 17  2  0  0  0  0
 17 18  1  0  0  0  0
 18 19  2  0  0  0  0
 19 20  1  0  0  0  0
 19 21  1  0  0  0  0
 21 22  1  0  0  0  0
 21 23  2  0  0  0  0
 16 23  1  0  0  0  0
 14 24  1  0  0  0  0
 24 25  1  0  0  0  0
 11 25  1  0  0  0  0
 10 26  1  0  0  0  0
 26 27  1  0  0  0  0
  7 27  1  0  0  0  0
  2 28  1  0  0  0  0
 28 29  2  0  0  0  0
 29 30  1  0  0  0  0
 30 31  2  0  0  0  0
 31 32  1  0  0  0  0
 32 33  2  0  0  0  0
 28 33  1  0  0  0  0
M  END
>  <StandardizerResult>
Tautomerize


>  <CdId>
146

>  <Mol Weight>
512.45

>  <Formula>
C23H27Cl2N3O4S

>  <Molecule ChEMBL ID>
CHEMBL2171015

>  <Molecule Max Phase>
0

>  <Molecular Weight>
512.46

>  <#RO5 Violations>
1

>  <AlogP>
3.98

>  <Compound Key>
1564

>  <Standard Type>
pKa_B1

>  <Standard Value>
8.1

>  <Comment>
'B1 Functional Group: Piperidine; Ionisation Formula: A1B1 (Functional Group: the part of the molecule the pKa refers to; Ionisation formula: AxBy where 'A' refers to acidic centers within the molecule that are appreciably ionised at a pH <= 11 and 'x' equals 0, 1 or 2; and 'B' refers to basic centers within the molecule that are appreciably ionised at a pH >= 2 and 'y' equals 0, 1, 2 or 3).'

>  <Potential Duplicate>
false

>  <Assay ChEMBL ID>
CHEMBL3301362

>  <Assay Description>
ASTRAZENECA: Most basic pKa value (pKa B1) determined by absorption and potentiometric titration using standard methodology from Sirius Analytical. Experimental range Bases: >= 2.

>  <Assay Type>
P

>  <BAO Format ID>
BAO_0000100

>  <BAO Label>
small-molecule physicochemical format

>  <Target ChEMBL ID>
CHEMBL2362975

>  <Target Name>
No relevant target

>  <Target Type>
NO TARGET

>  <Document ChEMBL ID>
CHEMBL3301361

>  <Source ID>
27

>  <Source Description>
AstraZeneca Deposited Data

>  <Strongest basic pKa>
8.29

>  <deltapKa>
-0.1873280257915919

>  <Strongest basic pKa_Taut>
8.29

>  <deltapKa_TAut>
-0.1873280257915919

$$$$

  Mrv1920 03272013312D          

 18 19  0  0  0  0            999 V2000
    3.5724   -1.2375    0.0000 C   0  0  0  0  0  0  0  0  0  0  0  0
    4.2868   -1.6500    0.0000 C   0  0  0  0  0  0  0  0  0  0  0  0
    4.2868   -2.4750    0.0000 C   0  0  0  0  0  0  0  0  0  0  0  0
    5.0013   -2.8875    0.0000 N   0  0  0  0  0  0  0  0  0  0  0  0
    5.7158   -2.4750    0.0000 C   0  0  0  0  0  0  0  0  0  0  0  0
    5.7158   -1.6500    0.0000 C   0  0  0  0  0  0  0  0  0  0  0  0
    6.4302   -1.2375    0.0000 C   0  0  0  0  0  0  0  0  0  0  0  0
    5.0013   -3.7125    0.0000 C   0  0  0  0  0  0  0  0  0  0  0  0
    5.7158   -4.1250    0.0000 C   0  0  0  0  0  0  0  0  0  0  0  0
    5.7158   -4.9500    0.0000 C   0  0  0  0  0  0  0  0  0  0  0  0
    5.0013   -5.3625    0.0000 C   0  0  0  0  0  0  0  0  0  0  0  0
    5.0013   -6.1875    0.0000 C   0  0  0  0  0  0  0  0  0  0  0  0
    5.7158   -6.6000    0.0000 O   0  0  0  0  0  0  0  0  0  0  0  0
    4.2868   -6.6000    0.0000 C   0  0  0  0  0  0  0  0  0  0  0  0
    3.5724   -6.1875    0.0000 C   0  0  0  0  0  0  0  0  0  0  0  0
    3.5724   -5.3625    0.0000 C   0  0  0  0  0  0  0  0  0  0  0  0
    4.2868   -4.9500    0.0000 C   0  0  0  0  0  0  0  0  0  0  0  0
    4.2868   -4.1250    0.0000 C   0  0  0  0  0  0  0  0  0  0  0  0
  1  2  1  0  0  0  0
  2  3  1  0  0  0  0
  3  4  1  0  0  0  0
  4  5  1  0  0  0  0
  5  6  1  0  0  0  0
  6  7  1  0  0  0  0
  4  8  1  0  0  0  0
  8  9  1  0  0  0  0
  9 10  1  0  0  0  0
 10 11  1  0  0  0  0
 11 12  2  0  0  0  0
 12 13  1  0  0  0  0
 12 14  1  0  0  0  0
 14 15  2  0  0  0  0
 15 16  1  0  0  0  0
 16 17  2  0  0  0  0
 11 17  1  0  0  0  0
 17 18  1  0  0  0  0
  8 18  1  0  0  0  0
M  END
>  <StandardizerResult>
Tautomerize


>  <CdId>
81

>  <Mol Weight>
247.38

>  <Formula>
C16H25NO

>  <Molecule ChEMBL ID>
CHEMBL273273

>  <Molecule Name>
5-OH-DPAT

>  <Molecule Max Phase>
0

>  <Molecular Weight>
247.38

>  <#RO5 Violations>
0

>  <AlogP>
3.37

>  <Compound Key>
1445

>  <Standard Type>
pKa_B1

>  <Standard Value>
10.85

>  <Comment>
'B1 Functional Group: Tertiary amine; Ionisation Formula: A1B1 (Functional Group: the part of the molecule the pKa refers to; Ionisation formula: AxBy where 'A' refers to acidic centers within the molecule that are appreciably ionised at a pH <= 11 and 'x' equals 0, 1 or 2; and 'B' refers to basic centers within the molecule that are appreciably ionised at a pH >= 2 and 'y' equals 0, 1, 2 or 3).'

>  <Potential Duplicate>
false

>  <Assay ChEMBL ID>
CHEMBL3301362

>  <Assay Description>
ASTRAZENECA: Most basic pKa value (pKa B1) determined by absorption and potentiometric titration using standard methodology from Sirius Analytical. Experimental range Bases: >= 2.

>  <Assay Type>
P

>  <BAO Format ID>
BAO_0000100

>  <BAO Label>
small-molecule physicochemical format

>  <Target ChEMBL ID>
CHEMBL2362975

>  <Target Name>
No relevant target

>  <Target Type>
NO TARGET

>  <Document ChEMBL ID>
CHEMBL3301361

>  <Source ID>
27

>  <Source Description>
AstraZeneca Deposited Data

>  <Strongest basic pKa>
11.02

>  <deltapKa>
-0.17402198322674245

>  <Strongest basic pKa_Taut>
11.02

>  <deltapKa_TAut>
-0.17402198322674245

$$$$

  Mrv1920 03272013312D          

 34 37  0  0  1  0            999 V2000
    6.8018    3.0229    0.0000 C   0  0  0  0  0  0  0  0  0  0  0  0
    6.0172    2.7679    0.0000 N   0  0  0  0  0  0  0  0  0  0  0  0
    5.4041    3.3200    0.0000 C   0  0  0  0  0  0  0  0  0  0  0  0
    5.8457    1.9610    0.0000 C   0  0  0  0  0  0  0  0  0  0  0  0
    5.0610    1.7060    0.0000 C   0  0  0  0  0  0  0  0  0  0  0  0
    4.8895    0.8990    0.0000 N   0  0  0  0  0  0  0  0  0  0  0  0
    5.4415    0.2859    0.0000 N   0  0  0  0  0  0  0  0  0  0  0  0
    5.0290   -0.4285    0.0000 N   0  0  0  0  0  0  0  0  0  0  0  0
    4.2221   -0.2570    0.0000 N   0  0  0  0  0  0  0  0  0  0  0  0
    4.1358    0.5635    0.0000 C   0  0  0  0  0  0  0  0  0  0  0  0
    3.4214    0.9760    0.0000 S   0  0  0  0  0  0  0  0  0  0  0  0
    2.7069    0.5635    0.0000 C   0  0  0  0  0  0  0  0  0  0  0  0
    1.9924    0.9760    0.0000 C   0  0  0  0  0  0  0  0  0  0  0  0
    1.2780    0.5635    0.0000 C   0  0  0  0  0  0  0  0  0  0  0  0
    1.2780   -0.2615    0.0000 C   0  0  0  0  0  0  0  0  0  0  0  0
    0.5635   -0.6740    0.0000 O   0  0  0  0  0  0  0  0  0  0  0  0
    1.9924   -0.6740    0.0000 O   0  0  0  0  0  0  0  0  0  0  0  0
    0.5635    0.9760    0.0000 N   0  0  0  0  0  0  0  0  0  0  0  0
   -0.2615    0.9760    0.0000 C   0  0  0  0  0  0  0  0  0  0  0  0
   -0.8449    0.3926    0.0000 O   0  0  0  0  0  0  0  0  0  0  0  0
   -0.2615    1.8010    0.0000 C   0  0  1  0  0  0  0  0  0  0  0  0
   -0.8449    2.3843    0.0000 N   0  0  0  0  0  0  0  0  0  0  0  0
   -1.6418    2.1708    0.0000 C   0  0  0  0  0  0  0  0  0  0  0  0
   -1.8553    1.3739    0.0000 O   0  0  0  0  0  0  0  0  0  0  0  0
   -2.2251    2.7542    0.0000 C   0  0  0  0  0  0  0  0  0  0  0  0
   -3.0220    2.5407    0.0000 C   0  0  0  0  0  0  0  0  0  0  0  0
   -3.3177    1.7705    0.0000 C   0  0  0  0  0  0  0  0  0  0  0  0
   -4.1415    1.8136    0.0000 S   0  0  0  0  0  0  0  0  0  0  0  0
   -4.3551    2.6105    0.0000 C   0  0  0  0  0  0  0  0  0  0  0  0
   -5.1253    2.9062    0.0000 N   0  0  0  0  0  0  0  0  0  0  0  0
   -3.6632    3.0598    0.0000 N   0  0  0  0  0  0  0  0  0  0  0  0
    0.5635    1.8010    0.0000 C   0  0  1  0  0  0  0  0  0  0  0  0
    1.2780    2.2135    0.0000 S   0  0  0  0  0  0  0  0  0  0  0  0
    1.9924    1.8010    0.0000 C   0  0  0  0  0  0  0  0  0  0  0  0
  1  2  1  0  0  0  0
  2  3  1  0  0  0  0
  2  4  1  0  0  0  0
  4  5  1  0  0  0  0
  5  6  1  0  0  0  0
  6  7  1  0  0  0  0
  7  8  2  0  0  0  0
  8  9  1  0  0  0  0
  9 10  2  0  0  0  0
  6 10  1  0  0  0  0
 10 11  1  0  0  0  0
 11 12  1  0  0  0  0
 12 13  1  0  0  0  0
 13 14  2  0  0  0  0
 14 15  1  0  0  0  0
 15 16  2  0  0  0  0
 15 17  1  0  0  0  0
 14 18  1  0  0  0  0
 18 19  1  0  0  0  0
 19 20  2  0  0  0  0
 21 19  1  0  0  0  0
 21 22  1  1  0  0  0
 22 23  1  0  0  0  0
 23 24  2  0  0  0  0
 23 25  1  0  0  0  0
 25 26  1  0  0  0  0
 26 27  2  0  0  0  0
 27 28  1  0  0  0  0
 28 29  1  0  0  0  0
 29 30  1  0  0  0  0
 29 31  2  0  0  0  0
 26 31  1  0  0  0  0
 21 32  1  0  0  0  0
 32 18  1  1  0  0  0
 32 33  1  0  0  0  0
 33 34  1  0  0  0  0
 13 34  1  0  0  0  0
M  END
>  <StandardizerResult>
Tautomerize


>  <CdId>
167

>  <Mol Weight>
525.62

>  <Formula>
C18H23N9O4S3

>  <Molecule ChEMBL ID>
CHEMBL1296

>  <Molecule Name>
CEFOTIAM

>  <Molecule Max Phase>
4

>  <Molecular Weight>
525.64

>  <#RO5 Violations>
2

>  <AlogP>
-0.65

>  <Compound Key>
2695

>  <Standard Type>
pKa_B1

>  <Standard Value>
8.18

>  <Comment>
'B1 Functional Group: Tertiary amine; Ionisation Formula: A1B2 (Functional Group: the part of the molecule the pKa refers to; Ionisation formula: AxBy where 'A' refers to acidic centers within the molecule that are appreciably ionised at a pH <= 11 and 'x' equals 0, 1 or 2; and 'B' refers to basic centers within the molecule that are appreciably ionised at a pH >= 2 and 'y' equals 0, 1, 2 or 3).'

>  <Potential Duplicate>
false

>  <Assay ChEMBL ID>
CHEMBL3301362

>  <Assay Description>
ASTRAZENECA: Most basic pKa value (pKa B1) determined by absorption and potentiometric titration using standard methodology from Sirius Analytical. Experimental range Bases: >= 2.

>  <Assay Type>
P

>  <BAO Format ID>
BAO_0000100

>  <BAO Label>
small-molecule physicochemical format

>  <Target ChEMBL ID>
CHEMBL2362975

>  <Target Name>
No relevant target

>  <Target Type>
NO TARGET

>  <Document ChEMBL ID>
CHEMBL3301361

>  <Source ID>
27

>  <Source Description>
AstraZeneca Deposited Data

>  <Strongest basic pKa>
8.34

>  <deltapKa>
-0.16460129356248565

>  <Strongest basic pKa_Taut>
8.34

>  <deltapKa_TAut>
-0.16460129356248565

$$$$

  Mrv1920 03272013312D          

 19 20  0  0  0  0            999 V2000
    0.7145    1.2375    0.0000 C   0  0  0  0  0  0  0  0  0  0  0  0
    1.4289    0.8250    0.0000 C   0  0  0  0  0  0  0  0  0  0  0  0
    1.4289    0.0000    0.0000 O   0  0  0  0  0  0  0  0  0  0  0  0
    2.1434   -0.4125    0.0000 C   0  0  0  0  0  0  0  0  0  0  0  0
    2.8579    0.0000    0.0000 O   0  0  0  0  0  0  0  0  0  0  0  0
    2.1434   -1.2375    0.0000 N   0  0  0  0  0  0  0  0  0  0  0  0
    2.8579   -1.6500    0.0000 C   0  0  0  0  0  0  0  0  0  0  0  0
    2.8579   -2.4750    0.0000 C   0  0  0  0  0  0  0  0  0  0  0  0
    2.1434   -2.8875    0.0000 C   0  0  0  0  0  0  0  0  0  0  0  0
    2.1434   -3.7125    0.0000 N   0  0  0  0  0  0  0  0  0  0  0  0
    1.4289   -4.1250    0.0000 C   0  0  0  0  0  0  0  0  0  0  0  0
    1.4289   -4.9500    0.0000 C   0  0  0  0  0  0  0  0  0  0  0  0
    0.7145   -5.3625    0.0000 C   0  0  0  0  0  0  0  0  0  0  0  0
    0.7145   -6.1875    0.0000 Cl  0  0  0  0  0  0  0  0  0  0  0  0
    0.0000   -4.9500    0.0000 C   0  0  0  0  0  0  0  0  0  0  0  0
    0.0000   -4.1250    0.0000 C   0  0  0  0  0  0  0  0  0  0  0  0
    0.7145   -3.7125    0.0000 N   0  0  0  0  0  0  0  0  0  0  0  0
    1.4289   -2.4750    0.0000 C   0  0  0  0  0  0  0  0  0  0  0  0
    1.4289   -1.6500    0.0000 C   0  0  0  0  0  0  0  0  0  0  0  0
  1  2  1  0  0  0  0
  2  3  1  0  0  0  0
  3  4  1  0  0  0  0
  4  5  2  0  0  0  0
  4  6  1  0  0  0  0
  6  7  1  0  0  0  0
  7  8  1  0  0  0  0
  8  9  1  0  0  0  0
  9 10  1  0  0  0  0
 10 11  1  0  0  0  0
 11 12  2  0  0  0  0
 12 13  1  0  0  0  0
 13 14  1  0  0  0  0
 13 15  2  0  0  0  0
 15 16  1  0  0  0  0
 16 17  2  0  0  0  0
 11 17  1  0  0  0  0
  9 18  1  0  0  0  0
 18 19  1  0  0  0  0
  6 19  1  0  0  0  0
M  END
>  <StandardizerResult>
Tautomerize


>  <CdId>
139

>  <Mol Weight>
283.76

>  <Formula>
C13H18ClN3O2

>  <Molecule ChEMBL ID>
CHEMBL1221660

>  <Molecule Max Phase>
0

>  <Molecular Weight>
283.76

>  <#RO5 Violations>
0

>  <AlogP>
2.77

>  <Compound Key>
1636

>  <Standard Type>
pKa_B1

>  <Standard Value>
5.3

>  <Comment>
'B1 Functional Group: 2-Pyridinamine; Ionisation Formula: A0B1 (Functional Group: the part of the molecule the pKa refers to; Ionisation formula: AxBy where 'A' refers to acidic centers within the molecule that are appreciably ionised at a pH <= 11 and 'x' equals 0, 1 or 2; and 'B' refers to basic centers within the molecule that are appreciably ionised at a pH >= 2 and 'y' equals 0, 1, 2 or 3).'

>  <Potential Duplicate>
false

>  <Assay ChEMBL ID>
CHEMBL3301362

>  <Assay Description>
ASTRAZENECA: Most basic pKa value (pKa B1) determined by absorption and potentiometric titration using standard methodology from Sirius Analytical. Experimental range Bases: >= 2.

>  <Assay Type>
P

>  <BAO Format ID>
BAO_0000100

>  <BAO Label>
small-molecule physicochemical format

>  <Target ChEMBL ID>
CHEMBL2362975

>  <Target Name>
No relevant target

>  <Target Type>
NO TARGET

>  <Document ChEMBL ID>
CHEMBL3301361

>  <Source ID>
27

>  <Source Description>
AstraZeneca Deposited Data

>  <Strongest basic pKa>
5.45

>  <deltapKa>
-0.15360211608934282

>  <Strongest basic pKa_Taut>
5.45

>  <deltapKa_TAut>
-0.15360211608934282

$$$$

  Mrv1920 03272013312D          

 20 21  0  0  0  0            999 V2000
    0.3020   -5.8559    0.0000 C   0  0  0  0  0  0  0  0  0  0  0  0
    0.7145   -5.1414    0.0000 C   0  0  0  0  0  0  0  0  0  0  0  0
    1.5395   -5.1414    0.0000 C   0  0  0  0  0  0  0  0  0  0  0  0
    1.9520   -4.4270    0.0000 N   0  0  0  0  0  0  0  0  0  0  0  0
    1.5395   -3.7125    0.0000 C   0  0  0  0  0  0  0  0  0  0  0  0
    0.7145   -3.7125    0.0000 C   0  0  0  0  0  0  0  0  0  0  0  0
    0.3020   -2.9980    0.0000 C   0  0  0  0  0  0  0  0  0  0  0  0
    2.7770   -4.4270    0.0000 C   0  0  0  0  0  0  0  0  0  0  0  0
    3.1895   -3.7125    0.0000 C   0  0  0  0  0  0  0  0  0  0  0  0
    4.0145   -3.7125    0.0000 C   0  0  0  0  0  0  0  0  0  0  0  0
    4.4270   -2.9980    0.0000 C   0  0  0  0  0  0  0  0  0  0  0  0
    5.2520   -2.9980    0.0000 C   0  0  0  0  0  0  0  0  0  0  0  0
    5.6645   -3.7125    0.0000 C   0  0  0  0  0  0  0  0  0  0  0  0
    6.4895   -3.7125    0.0000 O   0  0  0  0  0  0  0  0  0  0  0  0
    5.2520   -4.4270    0.0000 C   0  0  0  0  0  0  0  0  0  0  0  0
    4.4270   -4.4270    0.0000 C   0  0  0  0  0  0  0  0  0  0  0  0
    4.1720   -5.2116    0.0000 C   0  0  0  0  0  0  0  0  0  0  0  0
    4.8395   -5.6965    0.0000 C   0  0  0  0  0  0  0  0  0  0  0  0
    4.8395   -6.5215    0.0000 O   0  0  0  0  0  0  0  0  0  0  0  0
    5.5069   -5.2116    0.0000 N   0  0  0  0  0  0  0  0  0  0  0  0
  1  2  1  0  0  0  0
  2  3  1  0  0  0  0
  3  4  1  0  0  0  0
  4  5  1  0  0  0  0
  5  6  1  0  0  0  0
  6  7  1  0  0  0  0
  4  8  1  0  0  0  0
  8  9  1  0  0  0  0
  9 10  1  0  0  0  0
 10 11  2  0  0  0  0
 11 12  1  0  0  0  0
 12 13  2  0  0  0  0
 13 14  1  0  0  0  0
 13 15  1  0  0  0  0
 15 16  2  0  0  0  0
 10 16  1  0  0  0  0
 16 17  1  0  0  0  0
 17 18  1  0  0  0  0
 18 19  2  0  0  0  0
 18 20  1  0  0  0  0
 15 20  1  0  0  0  0
M  END
>  <StandardizerResult>
Tautomerize


>  <CdId>
76

>  <Mol Weight>
276.38

>  <Formula>
C16H24N2O2

>  <Molecule ChEMBL ID>
CHEMBL587

>  <Molecule Name>
SKF-89124A

>  <Molecule Max Phase>
0

>  <Molecular Weight>
276.38

>  <#RO5 Violations>
0

>  <AlogP>
2.55

>  <Compound Key>
1468

>  <Standard Type>
pKa_B1

>  <Standard Value>
10.2

>  <Comment>
'B1 Functional Group: Tertiary amine; Ionisation Formula: A1B1 (Functional Group: the part of the molecule the pKa refers to; Ionisation formula: AxBy where 'A' refers to acidic centers within the molecule that are appreciably ionised at a pH <= 11 and 'x' equals 0, 1 or 2; and 'B' refers to basic centers within the molecule that are appreciably ionised at a pH >= 2 and 'y' equals 0, 1, 2 or 3).'

>  <Potential Duplicate>
false

>  <Assay ChEMBL ID>
CHEMBL3301362

>  <Assay Description>
ASTRAZENECA: Most basic pKa value (pKa B1) determined by absorption and potentiometric titration using standard methodology from Sirius Analytical. Experimental range Bases: >= 2.

>  <Assay Type>
P

>  <BAO Format ID>
BAO_0000100

>  <BAO Label>
small-molecule physicochemical format

>  <Target ChEMBL ID>
CHEMBL2362975

>  <Target Name>
No relevant target

>  <Target Type>
NO TARGET

>  <Document ChEMBL ID>
CHEMBL3301361

>  <Source ID>
27

>  <Source Description>
AstraZeneca Deposited Data

>  <Strongest basic pKa>
10.34

>  <deltapKa>
-0.14245457138562934

>  <Strongest basic pKa_Taut>
10.34

>  <deltapKa_TAut>
-0.14245457138562934

$$$$

  Mrv1920 03272013312D          

 17 19  0  0  0  0            999 V2000
   -3.0587   -1.4124    0.0000 C   0  0  0  0  0  0  0  0  0  0  0  0
   -2.6462   -0.6979    0.0000 C   0  0  0  0  0  0  0  0  0  0  0  0
   -1.8212   -0.6979    0.0000 C   0  0  0  0  0  0  0  0  0  0  0  0
   -1.4087   -1.4124    0.0000 C   0  0  0  0  0  0  0  0  0  0  0  0
   -0.5837   -1.4124    0.0000 C   0  0  0  0  0  0  0  0  0  0  0  0
   -0.1712   -0.6979    0.0000 S   0  0  0  0  0  0  0  0  0  0  0  0
    0.6538   -0.6979    0.0000 C   0  0  0  0  0  0  0  0  0  0  0  0
    1.1387   -0.0305    0.0000 N   0  0  0  0  0  0  0  0  0  0  0  0
    1.9233   -0.2854    0.0000 C   0  0  0  0  0  0  0  0  0  0  0  0
    2.6378    0.1271    0.0000 C   0  0  0  0  0  0  0  0  0  0  0  0
    3.3523   -0.2854    0.0000 C   0  0  0  0  0  0  0  0  0  0  0  0
    3.3523   -1.1104    0.0000 C   0  0  0  0  0  0  0  0  0  0  0  0
    2.6378   -1.5229    0.0000 C   0  0  0  0  0  0  0  0  0  0  0  0
    1.9233   -1.1104    0.0000 C   0  0  0  0  0  0  0  0  0  0  0  0
    1.1387   -1.3654    0.0000 N   0  0  0  0  0  0  0  0  0  0  0  0
   -1.8212   -2.1269    0.0000 N   0  0  0  0  0  0  0  0  0  0  0  0
   -2.6462   -2.1269    0.0000 C   0  0  0  0  0  0  0  0  0  0  0  0
  1  2  2  0  0  0  0
  2  3  1  0  0  0  0
  3  4  2  0  0  0  0
  4  5  1  0  0  0  0
  5  6  1  0  0  0  0
  6  7  1  0  0  0  0
  7  8  2  0  0  0  0
  8  9  1  0  0  0  0
  9 10  2  0  0  0  0
 10 11  1  0  0  0  0
 11 12  2  0  0  0  0
 12 13  1  0  0  0  0
 13 14  2  0  0  0  0
  9 14  1  0  0  0  0
 14 15  1  0  0  0  0
  7 15  1  0  0  0  0
  4 16  1  0  0  0  0
 16 17  2  0  0  0  0
  1 17  1  0  0  0  0
M  END
>  <StandardizerResult>
Tautomerize


>  <CdId>
177

>  <Mol Weight>
241.31

>  <Formula>
C13H11N3S

>  <Molecule ChEMBL ID>
CHEMBL296580

>  <Molecule Max Phase>
0

>  <Molecular Weight>
241.32

>  <#RO5 Violations>
0

>  <AlogP>
3.25

>  <Compound Key>
189

>  <Standard Type>
pKa_B1

>  <Standard Value>
4.4

>  <Comment>
'B1 Functional Group: Pyridine; Ionisation Formula: A0B2 (Functional Group: the part of the molecule the pKa refers to; Ionisation formula: AxBy where 'A' refers to acidic centers within the molecule that are appreciably ionised at a pH <= 11 and 'x' equals 0, 1 or 2; and 'B' refers to basic centers within the molecule that are appreciably ionised at a pH >= 2 and 'y' equals 0, 1, 2 or 3).'

>  <Potential Duplicate>
false

>  <Assay ChEMBL ID>
CHEMBL3301362

>  <Assay Description>
ASTRAZENECA: Most basic pKa value (pKa B1) determined by absorption and potentiometric titration using standard methodology from Sirius Analytical. Experimental range Bases: >= 2.

>  <Assay Type>
P

>  <BAO Format ID>
BAO_0000100

>  <BAO Label>
small-molecule physicochemical format

>  <Target ChEMBL ID>
CHEMBL2362975

>  <Target Name>
No relevant target

>  <Target Type>
NO TARGET

>  <Document ChEMBL ID>
CHEMBL3301361

>  <Source ID>
27

>  <Source Description>
AstraZeneca Deposited Data

>  <Strongest basic pKa>
4.54

>  <deltapKa>
-0.13981408475667667

>  <Strongest basic pKa_Taut>
4.54

>  <deltapKa_TAut>
-0.13981408475667667

$$$$

  Mrv1920 03272013312D          

 22 23  0  0  0  0            999 V2000
    0.7145   -3.7125    0.0000 C   0  0  0  0  0  0  0  0  0  0  0  0
    1.4289   -4.1250    0.0000 C   0  0  0  0  0  0  0  0  0  0  0  0
    1.4289   -4.9500    0.0000 C   0  0  0  0  0  0  0  0  0  0  0  0
    2.1434   -3.7125    0.0000 N   0  0  0  0  0  0  0  0  0  0  0  0
    2.8579   -4.1250    0.0000 C   0  0  0  0  0  0  0  0  0  0  0  0
    3.5724   -3.7125    0.0000 C   0  0  0  0  0  0  0  0  0  0  0  0
    3.5724   -2.8875    0.0000 O   0  0  0  0  0  0  0  0  0  0  0  0
    4.2868   -4.1250    0.0000 C   0  0  0  0  0  0  0  0  0  0  0  0
    5.0013   -3.7125    0.0000 O   0  0  0  0  0  0  0  0  0  0  0  0
    5.7158   -4.1250    0.0000 C   0  0  0  0  0  0  0  0  0  0  0  0
    6.4302   -3.7125    0.0000 C   0  0  0  0  0  0  0  0  0  0  0  0
    7.1447   -4.1250    0.0000 C   0  0  0  0  0  0  0  0  0  0  0  0
    7.1447   -4.9500    0.0000 C   0  0  0  0  0  0  0  0  0  0  0  0
    7.8592   -5.3625    0.0000 C   0  0  0  0  0  0  0  0  0  0  0  0
    8.5737   -4.9500    0.0000 C   0  0  0  0  0  0  0  0  0  0  0  0
    9.2881   -5.3625    0.0000 O   0  0  0  0  0  0  0  0  0  0  0  0
   10.0026   -4.9500    0.0000 C   0  0  0  0  0  0  0  0  0  0  0  0
   10.7171   -5.3625    0.0000 C   0  0  0  0  0  0  0  0  0  0  0  0
   11.5421   -5.3625    0.0000 C   0  0  0  0  0  0  0  0  0  0  0  0
   11.1296   -6.0770    0.0000 C   0  0  0  0  0  0  0  0  0  0  0  0
    6.4302   -5.3625    0.0000 C   0  0  0  0  0  0  0  0  0  0  0  0
    5.7158   -4.9500    0.0000 C   0  0  0  0  0  0  0  0  0  0  0  0
  1  2  1  0  0  0  0
  2  3  1  0  0  0  0
  2  4  1  0  0  0  0
  4  5  1  0  0  0  0
  5  6  1  0  0  0  0
  6  7  1  0  0  0  0
  6  8  1  0  0  0  0
  8  9  1  0  0  0  0
  9 10  1  0  0  0  0
 10 11  2  0  0  0  0
 11 12  1  0  0  0  0
 12 13  2  0  0  0  0
 13 14  1  0  0  0  0
 14 15  1  0  0  0  0
 15 16  1  0  0  0  0
 16 17  1  0  0  0  0
 17 18  1  0  0  0  0
 18 19  1  0  0  0  0
 19 20  1  0  0  0  0
 18 20  1  0  0  0  0
 13 21  1  0  0  0  0
 21 22  2  0  0  0  0
 10 22  1  0  0  0  0
M  END
>  <StandardizerResult>
Tautomerize


>  <CdId>
18

>  <Mol Weight>
307.43

>  <Formula>
C18H29NO3

>  <Molecule ChEMBL ID>
CHEMBL423

>  <Molecule Name>
BETAXOLOL

>  <Molecule Max Phase>
4

>  <Molecular Weight>
307.43

>  <#RO5 Violations>
0

>  <AlogP>
2.39

>  <Compound Key>
1767

>  <Standard Type>
pKa_B1

>  <Standard Value>
9.53

>  <Comment>
'B1 Functional Group: Secondary amine; Ionisation Formula: A0B1 (Functional Group: the part of the molecule the pKa refers to; Ionisation formula: AxBy where 'A' refers to acidic centers within the molecule that are appreciably ionised at a pH <= 11 and 'x' equals 0, 1 or 2; and 'B' refers to basic centers within the molecule that are appreciably ionised at a pH >= 2 and 'y' equals 0, 1, 2 or 3).'

>  <Potential Duplicate>
false

>  <Assay ChEMBL ID>
CHEMBL3301362

>  <Assay Description>
ASTRAZENECA: Most basic pKa value (pKa B1) determined by absorption and potentiometric titration using standard methodology from Sirius Analytical. Experimental range Bases: >= 2.

>  <Assay Type>
P

>  <BAO Format ID>
BAO_0000100

>  <BAO Label>
small-molecule physicochemical format

>  <Target ChEMBL ID>
CHEMBL2362975

>  <Target Name>
No relevant target

>  <Target Type>
NO TARGET

>  <Document ChEMBL ID>
CHEMBL3301361

>  <Source ID>
27

>  <Source Description>
AstraZeneca Deposited Data

>  <Strongest basic pKa>
9.67

>  <deltapKa>
-0.1361666057084978

>  <Strongest basic pKa_Taut>
9.67

>  <deltapKa_TAut>
-0.1361666057084978

$$$$

  Mrv1920 03272013312D          

 31 33  0  0  0  0            999 V2000
    1.4289   -1.6500    0.0000 C   0  0  0  0  0  0  0  0  0  0  0  0
    0.7145   -1.2375    0.0000 O   0  0  0  0  0  0  0  0  0  0  0  0
    0.7145   -0.4125    0.0000 C   0  0  0  0  0  0  0  0  0  0  0  0
    0.0000    0.0000    0.0000 C   0  0  0  0  0  0  0  0  0  0  0  0
   -0.7145   -0.4125    0.0000 C   0  0  0  0  0  0  0  0  0  0  0  0
    0.0000    0.8250    0.0000 C   0  0  0  0  0  0  0  0  0  0  0  0
    0.7145    1.2375    0.0000 C   0  0  0  0  0  0  0  0  0  0  0  0
    1.4289    0.8250    0.0000 C   0  0  0  0  0  0  0  0  0  0  0  0
    2.1434    1.2375    0.0000 O   0  0  0  0  0  0  0  0  0  0  0  0
    1.4289    0.0000    0.0000 C   0  0  0  0  0  0  0  0  0  0  0  0
    2.1434   -0.4125    0.0000 C   0  0  0  0  0  0  0  0  0  0  0  0
    2.1434   -1.2375    0.0000 C   0  0  0  0  0  0  0  0  0  0  0  0
    2.8579   -1.6500    0.0000 C   0  0  0  0  0  0  0  0  0  0  0  0
    2.8579   -2.4750    0.0000 C   0  0  0  0  0  0  0  0  0  0  0  0
    3.5724   -1.2375    0.0000 C   0  0  0  0  0  0  0  0  0  0  0  0
    4.2868   -1.6500    0.0000 C   0  0  0  0  0  0  0  0  0  0  0  0
    5.0013   -1.2375    0.0000 C   0  0  0  0  0  0  0  0  0  0  0  0
    5.0013   -0.4125    0.0000 O   0  0  0  0  0  0  0  0  0  0  0  0
    5.7158   -1.6500    0.0000 O   0  0  0  0  0  0  0  0  0  0  0  0
    6.4302   -1.2375    0.0000 C   0  0  0  0  0  0  0  0  0  0  0  0
    7.1447   -1.6500    0.0000 C   0  0  0  0  0  0  0  0  0  0  0  0
    7.8592   -1.2375    0.0000 N   0  0  0  0  0  0  0  0  0  0  0  0
    7.8592   -0.4125    0.0000 C   0  0  0  0  0  0  0  0  0  0  0  0
    8.5737    0.0000    0.0000 C   0  0  0  0  0  0  0  0  0  0  0  0
    9.2881   -0.4125    0.0000 O   0  0  0  0  0  0  0  0  0  0  0  0
    9.2881   -1.2375    0.0000 C   0  0  0  0  0  0  0  0  0  0  0  0
    8.5737   -1.6500    0.0000 C   0  0  0  0  0  0  0  0  0  0  0  0
    0.5429    2.0445    0.0000 C   0  0  0  0  0  0  0  0  0  0  0  0
    1.0950    2.6576    0.0000 O   0  0  0  0  0  0  0  0  0  0  0  0
   -0.2775    2.1307    0.0000 O   0  0  0  0  0  0  0  0  0  0  0  0
   -0.6131    1.3770    0.0000 C   0  0  0  0  0  0  0  0  0  0  0  0
  1  2  1  0  0  0  0
  2  3  1  0  0  0  0
  3  4  2  0  0  0  0
  4  5  1  0  0  0  0
  4  6  1  0  0  0  0
  6  7  2  0  0  0  0
  7  8  1  0  0  0  0
  8  9  1  0  0  0  0
  8 10  2  0  0  0  0
  3 10  1  0  0  0  0
 10 11  1  0  0  0  0
 12 11  1  4  0  0  0
 12 13  2  0  0  0  0
 13 14  1  0  0  0  0
 13 15  1  0  0  0  0
 15 16  1  0  0  0  0
 16 17  1  0  0  0  0
 17 18  2  0  0  0  0
 17 19  1  0  0  0  0
 19 20  1  0  0  0  0
 20 21  1  0  0  0  0
 21 22  1  0  0  0  0
 22 23  1  0  0  0  0
 23 24  1  0  0  0  0
 24 25  1  0  0  0  0
 25 26  1  0  0  0  0
 26 27  1  0  0  0  0
 22 27  1  0  0  0  0
  7 28  1  0  0  0  0
 28 29  2  0  0  0  0
 28 30  1  0  0  0  0
 30 31  1  0  0  0  0
  6 31  1  0  0  0  0
M  END
>  <StandardizerResult>
Tautomerize


>  <CdId>
155

>  <Mol Weight>
433.5

>  <Formula>
C23H31NO7

>  <Molecule ChEMBL ID>
CHEMBL1456

>  <Molecule Name>
MYCOPHENOLATE MOFETIL

>  <Molecule Max Phase>
4

>  <Molecular Weight>
433.5

>  <#RO5 Violations>
0

>  <AlogP>
2.52

>  <Compound Key>
1189

>  <Standard Type>
pKa_B1

>  <Standard Value>
6.06

>  <Comment>
'B1 Functional Group: Morpholine; Ionisation Formula: A1B1 (Functional Group: the part of the molecule the pKa refers to; Ionisation formula: AxBy where 'A' refers to acidic centers within the molecule that are appreciably ionised at a pH <= 11 and 'x' equals 0, 1 or 2; and 'B' refers to basic centers within the molecule that are appreciably ionised at a pH >= 2 and 'y' equals 0, 1, 2 or 3).'

>  <Potential Duplicate>
false

>  <Assay ChEMBL ID>
CHEMBL3301362

>  <Assay Description>
ASTRAZENECA: Most basic pKa value (pKa B1) determined by absorption and potentiometric titration using standard methodology from Sirius Analytical. Experimental range Bases: >= 2.

>  <Assay Type>
P

>  <BAO Format ID>
BAO_0000100

>  <BAO Label>
small-molecule physicochemical format

>  <Target ChEMBL ID>
CHEMBL2362975

>  <Target Name>
No relevant target

>  <Target Type>
NO TARGET

>  <Document ChEMBL ID>
CHEMBL3301361

>  <Source ID>
27

>  <Source Description>
AstraZeneca Deposited Data

>  <Strongest basic pKa>
6.19

>  <deltapKa>
-0.13460672398686047

>  <Strongest basic pKa_Taut>
6.19

>  <deltapKa_TAut>
-0.13460672398686047

$$$$

  Mrv1920 03272013312D          

 28 30  0  0  0  0            999 V2000
   -7.1447   -4.1250    0.0000 C   0  0  0  0  0  0  0  0  0  0  0  0
   -6.4302   -4.5375    0.0000 O   0  0  0  0  0  0  0  0  0  0  0  0
   -5.7158   -4.1250    0.0000 C   0  0  0  0  0  0  0  0  0  0  0  0
   -5.7158   -3.3000    0.0000 C   0  0  0  0  0  0  0  0  0  0  0  0
   -5.0013   -2.8875    0.0000 C   0  0  0  0  0  0  0  0  0  0  0  0
   -4.2868   -3.3000    0.0000 C   0  0  0  0  0  0  0  0  0  0  0  0
   -4.2868   -4.1250    0.0000 C   0  0  0  0  0  0  0  0  0  0  0  0
   -3.5724   -4.5375    0.0000 C   0  0  0  0  0  0  0  0  0  0  0  0
   -3.5724   -5.3625    0.0000 O   0  0  0  0  0  0  0  0  0  0  0  0
   -2.8579   -4.1250    0.0000 N   0  0  0  0  0  0  0  0  0  0  0  0
   -2.1434   -4.5375    0.0000 C   0  0  0  0  0  0  0  0  0  0  0  0
   -1.4289   -4.1250    0.0000 C   0  0  0  0  0  0  0  0  0  0  0  0
   -0.7145   -4.5375    0.0000 N   0  0  0  0  0  0  0  0  0  0  0  0
    0.0000   -4.1250    0.0000 C   0  0  0  0  0  0  0  0  0  0  0  0
    0.7145   -4.5375    0.0000 C   0  0  0  0  0  0  0  0  0  0  0  0
    0.7145   -5.3625    0.0000 C   0  0  0  0  0  0  0  0  0  0  0  0
    1.4289   -5.7750    0.0000 O   0  0  0  0  0  0  0  0  0  0  0  0
    2.1434   -5.3625    0.0000 C   0  0  0  0  0  0  0  0  0  0  0  0
    2.1434   -4.5375    0.0000 C   0  0  0  0  0  0  0  0  0  0  0  0
    2.8579   -4.1250    0.0000 C   0  0  0  0  0  0  0  0  0  0  0  0
    3.5724   -4.5375    0.0000 C   0  0  0  0  0  0  0  0  0  0  0  0
    4.2868   -4.1250    0.0000 Cl  0  0  0  0  0  0  0  0  0  0  0  0
    3.5724   -5.3625    0.0000 C   0  0  0  0  0  0  0  0  0  0  0  0
    4.2868   -5.7750    0.0000 Cl  0  0  0  0  0  0  0  0  0  0  0  0
    2.8579   -5.7750    0.0000 C   0  0  0  0  0  0  0  0  0  0  0  0
    0.0000   -5.7750    0.0000 C   0  0  0  0  0  0  0  0  0  0  0  0
   -0.7145   -5.3625    0.0000 C   0  0  0  0  0  0  0  0  0  0  0  0
   -5.0013   -4.5375    0.0000 C   0  0  0  0  0  0  0  0  0  0  0  0
  1  2  1  0  0  0  0
  2  3  1  0  0  0  0
  3  4  2  0  0  0  0
  4  5  1  0  0  0  0
  5  6  2  0  0  0  0
  6  7  1  0  0  0  0
  7  8  1  0  0  0  0
  8  9  2  0  0  0  0
  8 10  1  0  0  0  0
 10 11  1  0  0  0  0
 11 12  1  0  0  0  0
 12 13  1  0  0  0  0
 13 14  1  0  0  0  0
 14 15  1  0  0  0  0
 15 16  1  0  0  0  0
 16 17  1  0  0  0  0
 17 18  1  0  0  0  0
 18 19  2  0  0  0  0
 19 20  1  0  0  0  0
 20 21  2  0  0  0  0
 21 22  1  0  0  0  0
 21 23  1  0  0  0  0
 23 24  1  0  0  0  0
 23 25  2  0  0  0  0
 18 25  1  0  0  0  0
 16 26  1  0  0  0  0
 26 27  1  0  0  0  0
 13 27  1  0  0  0  0
  7 28  2  0  0  0  0
  3 28  1  0  0  0  0
M  END
>  <StandardizerResult>
Tautomerize


>  <CdId>
35

>  <Mol Weight>
423.33

>  <Formula>
C21H24Cl2N2O3

>  <Molecule ChEMBL ID>
CHEMBL2171018

>  <Molecule Max Phase>
0

>  <Molecular Weight>
423.34

>  <#RO5 Violations>
0

>  <AlogP>
4.28

>  <Compound Key>
1584

>  <Standard Type>
pKa_B1

>  <Standard Value>
7.4

>  <Comment>
'B1 Functional Group: Piperidine; Ionisation Formula: A0B1 (Functional Group: the part of the molecule the pKa refers to; Ionisation formula: AxBy where 'A' refers to acidic centers within the molecule that are appreciably ionised at a pH <= 11 and 'x' equals 0, 1 or 2; and 'B' refers to basic centers within the molecule that are appreciably ionised at a pH >= 2 and 'y' equals 0, 1, 2 or 3).'

>  <Potential Duplicate>
false

>  <Assay ChEMBL ID>
CHEMBL3301362

>  <Assay Description>
ASTRAZENECA: Most basic pKa value (pKa B1) determined by absorption and potentiometric titration using standard methodology from Sirius Analytical. Experimental range Bases: >= 2.

>  <Assay Type>
P

>  <BAO Format ID>
BAO_0000100

>  <BAO Label>
small-molecule physicochemical format

>  <Target ChEMBL ID>
CHEMBL2362975

>  <Target Name>
No relevant target

>  <Target Type>
NO TARGET

>  <Document ChEMBL ID>
CHEMBL3301361

>  <Source ID>
27

>  <Source Description>
AstraZeneca Deposited Data

>  <Strongest basic pKa>
7.53

>  <deltapKa>
-0.13060718191508602

>  <Strongest basic pKa_Taut>
7.53

>  <deltapKa_TAut>
-0.13060718191508602

$$$$

  Mrv1920 03272013312D          

 19 20  0  0  0  0            999 V2000
   -2.1434   -1.2375    0.0000 C   0  0  0  0  0  0  0  0  0  0  0  0
   -1.4289   -1.6500    0.0000 N   0  0  0  0  0  0  0  0  0  0  0  0
   -1.4289   -2.4750    0.0000 C   0  0  0  0  0  0  0  0  0  0  0  0
   -0.7145   -1.2375    0.0000 C   0  0  0  0  0  0  0  0  0  0  0  0
    0.0000   -1.6500    0.0000 C   0  0  0  0  0  0  0  0  0  0  0  0
    0.7145   -1.2375    0.0000 C   0  0  0  0  0  0  0  0  0  0  0  0
    1.4289   -1.6500    0.0000 C   0  0  0  0  0  0  0  0  0  0  0  0
    2.1434   -1.2375    0.0000 C   0  0  0  0  0  0  0  0  0  0  0  0
    2.8579   -1.6500    0.0000 C   0  0  0  0  0  0  0  0  0  0  0  0
    2.8579   -2.4750    0.0000 C   0  0  0  0  0  0  0  0  0  0  0  0
    3.5724   -2.8875    0.0000 Cl  0  0  0  0  0  0  0  0  0  0  0  0
    2.1434   -2.8875    0.0000 C   0  0  0  0  0  0  0  0  0  0  0  0
    1.4289   -2.4750    0.0000 C   0  0  0  0  0  0  0  0  0  0  0  0
    0.7145   -0.4125    0.0000 C   0  0  0  0  0  0  0  0  0  0  0  0
    0.0000    0.0000    0.0000 C   0  0  0  0  0  0  0  0  0  0  0  0
    0.0000    0.8250    0.0000 C   0  0  0  0  0  0  0  0  0  0  0  0
    0.7145    1.2375    0.0000 C   0  0  0  0  0  0  0  0  0  0  0  0
    1.4289    0.8250    0.0000 C   0  0  0  0  0  0  0  0  0  0  0  0
    1.4289    0.0000    0.0000 N   0  0  0  0  0  0  0  0  0  0  0  0
  1  2  1  0  0  0  0
  2  3  1  0  0  0  0
  2  4  1  0  0  0  0
  4  5  1  0  0  0  0
  5  6  1  0  0  0  0
  6  7  1  0  0  0  0
  7  8  2  0  0  0  0
  8  9  1  0  0  0  0
  9 10  2  0  0  0  0
 10 11  1  0  0  0  0
 10 12  1  0  0  0  0
 12 13  2  0  0  0  0
  7 13  1  0  0  0  0
  6 14  1  0  0  0  0
 14 15  2  0  0  0  0
 15 16  1  0  0  0  0
 16 17  2  0  0  0  0
 17 18  1  0  0  0  0
 18 19  2  0  0  0  0
 14 19  1  0  0  0  0
M  END
>  <StandardizerResult>
Tautomerize


>  <CdId>
75

>  <Mol Weight>
274.79

>  <Formula>
C16H19ClN2

>  <Molecule ChEMBL ID>
CHEMBL505

>  <Molecule Name>
CHLORPHENIRAMINE

>  <Molecule Max Phase>
4

>  <Molecular Weight>
274.8

>  <#RO5 Violations>
0

>  <AlogP>
3.82

>  <Compound Key>
332

>  <Standard Type>
pKa_B1

>  <Standard Value>
9.35

>  <Comment>
'B1 Functional Group: Tertiary amine; Ionisation Formula: A0B2 (Functional Group: the part of the molecule the pKa refers to; Ionisation formula: AxBy where 'A' refers to acidic centers within the molecule that are appreciably ionised at a pH <= 11 and 'x' equals 0, 1 or 2; and 'B' refers to basic centers within the molecule that are appreciably ionised at a pH >= 2 and 'y' equals 0, 1, 2 or 3).'

>  <Potential Duplicate>
false

>  <Assay ChEMBL ID>
CHEMBL3301362

>  <Assay Description>
ASTRAZENECA: Most basic pKa value (pKa B1) determined by absorption and potentiometric titration using standard methodology from Sirius Analytical. Experimental range Bases: >= 2.

>  <Assay Type>
P

>  <BAO Format ID>
BAO_0000100

>  <BAO Label>
small-molecule physicochemical format

>  <Target ChEMBL ID>
CHEMBL2362975

>  <Target Name>
No relevant target

>  <Target Type>
NO TARGET

>  <Document ChEMBL ID>
CHEMBL3301361

>  <Source ID>
27

>  <Source Description>
AstraZeneca Deposited Data

>  <Strongest basic pKa>
9.47

>  <deltapKa>
-0.12471166388396249

>  <Strongest basic pKa_Taut>
9.47

>  <deltapKa_TAut>
-0.12471166388396249

$$$$

  Mrv1920 03272013312D          

 32 35  0  0  0  0            999 V2000
    5.7158    2.4750    0.0000 O   0  0  0  0  0  0  0  0  0  0  0  0
    6.4302    2.0625    0.0000 C   0  0  0  0  0  0  0  0  0  0  0  0
    7.1447    2.4750    0.0000 O   0  0  0  0  0  0  0  0  0  0  0  0
    6.4302    1.2375    0.0000 C   0  0  0  0  0  0  0  0  0  0  0  0
    5.7158    0.8250    0.0000 C   0  0  0  0  0  0  0  0  0  0  0  0
    5.7158    0.0000    0.0000 C   0  0  0  0  0  0  0  0  0  0  0  0
    6.4302   -0.4125    0.0000 C   0  0  0  0  0  0  0  0  0  0  0  0
    7.1447    0.0000    0.0000 C   0  0  0  0  0  0  0  0  0  0  0  0
    7.1447    0.8250    0.0000 C   0  0  0  0  0  0  0  0  0  0  0  0
    7.8592    1.2375    0.0000 C   0  0  0  0  0  0  0  0  0  0  0  0
    8.5737    0.8250    0.0000 N   0  0  0  0  0  0  0  0  0  0  0  0
    9.2881    1.2375    0.0000 C   0  0  0  0  0  0  0  0  0  0  0  0
   10.0026    0.8250    0.0000 C   0  0  0  0  0  0  0  0  0  0  0  0
   10.0026    0.0000    0.0000 C   0  0  0  0  0  0  0  0  0  0  0  0
   10.7171   -0.4125    0.0000 C   0  0  0  0  0  0  0  0  0  0  0  0
   10.7171   -1.2375    0.0000 N   0  0  0  0  0  0  0  0  0  0  0  0
   11.4315   -1.6500    0.0000 C   0  0  0  0  0  0  0  0  0  0  0  0
   11.4315   -2.4750    0.0000 C   0  0  0  0  0  0  0  0  0  0  0  0
   10.7171   -2.8875    0.0000 C   0  0  0  0  0  0  0  0  0  0  0  0
   10.7171   -3.7125    0.0000 O   0  0  0  0  0  0  0  0  0  0  0  0
   10.0026   -4.1250    0.0000 C   0  0  0  0  0  0  0  0  0  0  0  0
   10.0026   -4.9500    0.0000 C   0  0  0  0  0  0  0  0  0  0  0  0
    9.2881   -5.3625    0.0000 C   0  0  0  0  0  0  0  0  0  0  0  0
    8.5737   -4.9500    0.0000 C   0  0  0  0  0  0  0  0  0  0  0  0
    7.8592   -5.3625    0.0000 Cl  0  0  0  0  0  0  0  0  0  0  0  0
    8.5737   -4.1250    0.0000 C   0  0  0  0  0  0  0  0  0  0  0  0
    7.8592   -3.7125    0.0000 Cl  0  0  0  0  0  0  0  0  0  0  0  0
    9.2881   -3.7125    0.0000 C   0  0  0  0  0  0  0  0  0  0  0  0
   10.0026   -2.4750    0.0000 C   0  0  0  0  0  0  0  0  0  0  0  0
   10.0026   -1.6500    0.0000 C   0  0  0  0  0  0  0  0  0  0  0  0
    9.2881   -0.4125    0.0000 C   0  0  0  0  0  0  0  0  0  0  0  0
    8.5737    0.0000    0.0000 C   0  0  0  0  0  0  0  0  0  0  0  0
  1  2  2  0  0  0  0
  2  3  1  0  0  0  0
  2  4  1  0  0  0  0
  4  5  2  0  0  0  0
  5  6  1  0  0  0  0
  6  7  2  0  0  0  0
  7  8  1  0  0  0  0
  8  9  2  0  0  0  0
  4  9  1  0  0  0  0
  9 10  1  0  0  0  0
 10 11  1  0  0  0  0
 11 12  1  0  0  0  0
 12 13  1  0  0  0  0
 13 14  1  0  0  0  0
 14 15  1  0  0  0  0
 15 16  1  0  0  0  0
 16 17  1  0  0  0  0
 17 18  1  0  0  0  0
 18 19  1  0  0  0  0
 19 20  1  0  0  0  0
 20 21  1  0  0  0  0
 21 22  2  0  0  0  0
 22 23  1  0  0  0  0
 23 24  2  0  0  0  0
 24 25  1  0  0  0  0
 24 26  1  0  0  0  0
 26 27  1  0  0  0  0
 26 28  2  0  0  0  0
 21 28  1  0  0  0  0
 19 29  1  0  0  0  0
 29 30  1  0  0  0  0
 16 30  1  0  0  0  0
 14 31  1  0  0  0  0
 31 32  1  0  0  0  0
 11 32  1  0  0  0  0
M  END
>  <StandardizerResult>
Tautomerize


>  <CdId>
165

>  <Mol Weight>
477.43

>  <Formula>
C25H30Cl2N2O3

>  <Molecule ChEMBL ID>
CHEMBL2158831

>  <Molecule Max Phase>
0

>  <Molecular Weight>
477.43

>  <#RO5 Violations>
1

>  <AlogP>
5.45

>  <Compound Key>
2256

>  <Standard Type>
pKa_B1

>  <Standard Value>
9.6

>  <Comment>
'B1 Functional Group: Piperidine; Ionisation Formula: A1B2 (Functional Group: the part of the molecule the pKa refers to; Ionisation formula: AxBy where 'A' refers to acidic centers within the molecule that are appreciably ionised at a pH <= 11 and 'x' equals 0, 1 or 2; and 'B' refers to basic centers within the molecule that are appreciably ionised at a pH >= 2 and 'y' equals 0, 1, 2 or 3).'

>  <Potential Duplicate>
false

>  <Assay ChEMBL ID>
CHEMBL3301362

>  <Assay Description>
ASTRAZENECA: Most basic pKa value (pKa B1) determined by absorption and potentiometric titration using standard methodology from Sirius Analytical. Experimental range Bases: >= 2.

>  <Assay Type>
P

>  <BAO Format ID>
BAO_0000100

>  <BAO Label>
small-molecule physicochemical format

>  <Target ChEMBL ID>
CHEMBL2362975

>  <Target Name>
No relevant target

>  <Target Type>
NO TARGET

>  <Document ChEMBL ID>
CHEMBL3301361

>  <Source ID>
27

>  <Source Description>
AstraZeneca Deposited Data

>  <Strongest basic pKa>
9.72

>  <deltapKa>
-0.1233033432691748

>  <Strongest basic pKa_Taut>
9.72

>  <deltapKa_TAut>
-0.1233033432691748

$$$$

  Mrv1920 03272013312D          

 21 22  0  0  1  0            999 V2000
    0.0000    1.6500    0.0000 N   0  0  0  0  0  0  0  0  0  0  0  0
    0.7145    1.2375    0.0000 C   0  0  0  0  0  0  0  0  0  0  0  0
    1.4289    0.8250    0.0000 C   0  0  0  0  0  0  0  0  0  0  0  0
    2.1434    1.2375    0.0000 C   0  0  0  0  0  0  0  0  0  0  0  0
    2.8579    0.8250    0.0000 C   0  0  0  0  0  0  0  0  0  0  0  0
    3.5724    1.2375    0.0000 F   0  0  0  0  0  0  0  0  0  0  0  0
    2.8579    0.0000    0.0000 C   0  0  0  0  0  0  0  0  0  0  0  0
    3.5724   -0.4125    0.0000 Cl  0  0  0  0  0  0  0  0  0  0  0  0
    2.1434   -0.4125    0.0000 C   0  0  0  0  0  0  0  0  0  0  0  0
    1.4289    0.0000    0.0000 C   0  0  0  0  0  0  0  0  0  0  0  0
    0.7145   -0.4125    0.0000 O   0  0  0  0  0  0  0  0  0  0  0  0
    0.7145   -1.2375    0.0000 C   0  0  2  0  0  0  0  0  0  0  0  0
    1.4289   -1.6500    0.0000 C   0  0  0  0  0  0  0  0  0  0  0  0
    2.1434   -1.2375    0.0000 C   0  0  0  0  0  0  0  0  0  0  0  0
    2.8579   -1.6500    0.0000 N   0  0  0  0  0  0  0  0  0  0  0  0
    0.0000   -1.6500    0.0000 C   0  0  0  0  0  0  0  0  0  0  0  0
    0.0000   -2.4750    0.0000 C   0  0  0  0  0  0  0  0  0  0  0  0
   -0.7145   -2.8875    0.0000 C   0  0  0  0  0  0  0  0  0  0  0  0
   -1.4289   -2.4750    0.0000 C   0  0  0  0  0  0  0  0  0  0  0  0
   -1.4289   -1.6500    0.0000 C   0  0  0  0  0  0  0  0  0  0  0  0
   -0.7145   -1.2375    0.0000 C   0  0  0  0  0  0  0  0  0  0  0  0
  1  2  3  0  0  0  0
  2  3  1  0  0  0  0
  3  4  2  0  0  0  0
  4  5  1  0  0  0  0
  5  6  1  0  0  0  0
  5  7  2  0  0  0  0
  7  8  1  0  0  0  0
  7  9  1  0  0  0  0
  9 10  2  0  0  0  0
  3 10  1  0  0  0  0
 10 11  1  0  0  0  0
 12 11  1  6  0  0  0
 12 13  1  0  0  0  0
 13 14  1  0  0  0  0
 14 15  1  0  0  0  0
 12 16  1  0  0  0  0
 16 17  2  0  0  0  0
 17 18  1  0  0  0  0
 18 19  2  0  0  0  0
 19 20  1  0  0  0  0
 20 21  2  0  0  0  0
 16 21  1  0  0  0  0
M  END
>  <StandardizerResult>
Tautomerize


>  <CdId>
215

>  <Mol Weight>
304.75

>  <Formula>
C16H14ClFN2O

>  <Molecule ChEMBL ID>
CHEMBL1789186

>  <Molecule Max Phase>
0

>  <Molecular Weight>
304.75

>  <#RO5 Violations>
0

>  <AlogP>
3.82

>  <Compound Key>
2113

>  <Standard Type>
pKa_B1

>  <Standard Value>
9.6

>  <Comment>
'B1 Functional Group: Primary amine; Ionisation Formula: A0B1 (Functional Group: the part of the molecule the pKa refers to; Ionisation formula: AxBy where 'A' refers to acidic centers within the molecule that are appreciably ionised at a pH <= 11 and 'x' equals 0, 1 or 2; and 'B' refers to basic centers within the molecule that are appreciably ionised at a pH >= 2 and 'y' equals 0, 1, 2 or 3).'

>  <Potential Duplicate>
false

>  <Assay ChEMBL ID>
CHEMBL3301362

>  <Assay Description>
ASTRAZENECA: Most basic pKa value (pKa B1) determined by absorption and potentiometric titration using standard methodology from Sirius Analytical. Experimental range Bases: >= 2.

>  <Assay Type>
P

>  <BAO Format ID>
BAO_0000100

>  <BAO Label>
small-molecule physicochemical format

>  <Target ChEMBL ID>
CHEMBL2362975

>  <Target Name>
No relevant target

>  <Target Type>
NO TARGET

>  <Document ChEMBL ID>
CHEMBL3301361

>  <Source ID>
27

>  <Source Description>
AstraZeneca Deposited Data

>  <Strongest basic pKa>
9.72

>  <deltapKa>
-0.11787332588693111

>  <Strongest basic pKa_Taut>
9.72

>  <deltapKa_TAut>
-0.11787332588693111

$$$$

  Mrv1920 03272013312D          

 35 38  0  0  0  0            999 V2000
    8.5737   -3.3000    0.0000 C   0  0  0  0  0  0  0  0  0  0  0  0
    8.5737   -4.1250    0.0000 C   0  0  0  0  0  0  0  0  0  0  0  0
    9.2881   -4.5375    0.0000 C   0  0  0  0  0  0  0  0  0  0  0  0
    9.2881   -5.3625    0.0000 C   0  0  0  0  0  0  0  0  0  0  0  0
    8.5737   -5.7750    0.0000 C   0  0  0  0  0  0  0  0  0  0  0  0
    8.5737   -6.6000    0.0000 S   0  0  0  0  0  0  0  0  0  0  0  0
    7.7487   -6.6000    0.0000 O   0  0  0  0  0  0  0  0  0  0  0  0
    9.3987   -6.6000    0.0000 O   0  0  0  0  0  0  0  0  0  0  0  0
    8.5737   -7.4250    0.0000 N   0  0  0  0  0  0  0  0  0  0  0  0
    9.2881   -7.8375    0.0000 C   0  0  0  0  0  0  0  0  0  0  0  0
   10.0026   -7.4250    0.0000 O   0  0  0  0  0  0  0  0  0  0  0  0
    9.2881   -8.6625    0.0000 N   0  0  0  0  0  0  0  0  0  0  0  0
   10.0026   -9.0750    0.0000 C   0  0  0  0  0  0  0  0  0  0  0  0
   10.0026   -9.9000    0.0000 C   0  0  0  0  0  0  0  0  0  0  0  0
    9.2881  -10.3125    0.0000 C   0  0  0  0  0  0  0  0  0  0  0  0
    9.2881  -11.1375    0.0000 N   0  0  0  0  0  0  0  0  0  0  0  0
   10.0026  -11.5500    0.0000 C   0  0  0  0  0  0  0  0  0  0  0  0
   10.0026  -12.3750    0.0000 C   0  0  0  0  0  0  0  0  0  0  0  0
    9.2881  -12.7875    0.0000 C   0  0  0  0  0  0  0  0  0  0  0  0
    9.2881  -13.6125    0.0000 O   0  0  0  0  0  0  0  0  0  0  0  0
    8.5737  -14.0250    0.0000 C   0  0  0  0  0  0  0  0  0  0  0  0
    8.5737  -14.8500    0.0000 C   0  0  0  0  0  0  0  0  0  0  0  0
    7.8592  -15.2625    0.0000 C   0  0  0  0  0  0  0  0  0  0  0  0
    7.1447  -14.8500    0.0000 C   0  0  0  0  0  0  0  0  0  0  0  0
    6.4302  -15.2625    0.0000 Cl  0  0  0  0  0  0  0  0  0  0  0  0
    7.1447  -14.0250    0.0000 C   0  0  0  0  0  0  0  0  0  0  0  0
    6.4302  -13.6125    0.0000 C   0  0  0  0  0  0  0  0  0  0  0  0
    7.8592  -13.6125    0.0000 C   0  0  0  0  0  0  0  0  0  0  0  0
    7.8592  -12.7875    0.0000 Cl  0  0  0  0  0  0  0  0  0  0  0  0
    8.5737  -12.3750    0.0000 C   0  0  0  0  0  0  0  0  0  0  0  0
    8.5737  -11.5500    0.0000 C   0  0  0  0  0  0  0  0  0  0  0  0
    8.5737   -9.9000    0.0000 C   0  0  0  0  0  0  0  0  0  0  0  0
    8.5737   -9.0750    0.0000 C   0  0  0  0  0  0  0  0  0  0  0  0
    7.8592   -5.3625    0.0000 C   0  0  0  0  0  0  0  0  0  0  0  0
    7.8592   -4.5375    0.0000 C   0  0  0  0  0  0  0  0  0  0  0  0
  1  2  1  0  0  0  0
  2  3  2  0  0  0  0
  3  4  1  0  0  0  0
  4  5  2  0  0  0  0
  5  6  1  0  0  0  0
  6  7  2  0  0  0  0
  6  8  2  0  0  0  0
  6  9  1  0  0  0  0
  9 10  1  0  0  0  0
 10 11  2  0  0  0  0
 10 12  1  0  0  0  0
 12 13  1  0  0  0  0
 13 14  1  0  0  0  0
 14 15  1  0  0  0  0
 15 16  1  0  0  0  0
 16 17  1  0  0  0  0
 17 18  1  0  0  0  0
 18 19  1  0  0  0  0
 19 20  1  0  0  0  0
 20 21  1  0  0  0  0
 21 22  2  0  0  0  0
 22 23  1  0  0  0  0
 23 24  2  0  0  0  0
 24 25  1  0  0  0  0
 24 26  1  0  0  0  0
 26 27  1  0  0  0  0
 26 28  2  0  0  0  0
 21 28  1  0  0  0  0
 28 29  1  0  0  0  0
 19 30  1  0  0  0  0
 30 31  1  0  0  0  0
 16 31  1  0  0  0  0
 15 32  1  0  0  0  0
 32 33  1  0  0  0  0
 12 33  1  0  0  0  0
  5 34  1  0  0  0  0
 34 35  2  0  0  0  0
  2 35  1  0  0  0  0
M  END
>  <StandardizerResult>
Tautomerize


>  <CdId>
63

>  <Mol Weight>
540.5

>  <Formula>
C25H31Cl2N3O4S

>  <Molecule ChEMBL ID>
CHEMBL2171047

>  <Molecule Max Phase>
0

>  <Molecular Weight>
540.51

>  <#RO5 Violations>
2

>  <AlogP>
5.02

>  <Compound Key>
1557

>  <Standard Type>
pKa_B1

>  <Standard Value>
8.7

>  <Comment>
'B1 Functional Group: Piperidine; Ionisation Formula: A1B1 (Functional Group: the part of the molecule the pKa refers to; Ionisation formula: AxBy where 'A' refers to acidic centers within the molecule that are appreciably ionised at a pH <= 11 and 'x' equals 0, 1 or 2; and 'B' refers to basic centers within the molecule that are appreciably ionised at a pH >= 2 and 'y' equals 0, 1, 2 or 3).'

>  <Potential Duplicate>
false

>  <Assay ChEMBL ID>
CHEMBL3301362

>  <Assay Description>
ASTRAZENECA: Most basic pKa value (pKa B1) determined by absorption and potentiometric titration using standard methodology from Sirius Analytical. Experimental range Bases: >= 2.

>  <Assay Type>
P

>  <BAO Format ID>
BAO_0000100

>  <BAO Label>
small-molecule physicochemical format

>  <Target ChEMBL ID>
CHEMBL2362975

>  <Target Name>
No relevant target

>  <Target Type>
NO TARGET

>  <Document ChEMBL ID>
CHEMBL3301361

>  <Source ID>
27

>  <Source Description>
AstraZeneca Deposited Data

>  <Strongest basic pKa>
8.82

>  <deltapKa>
-0.11643129072946934

>  <Strongest basic pKa_Taut>
8.82

>  <deltapKa_TAut>
-0.11643129072946934

$$$$

  Mrv1920 03272013312D          

 15 16  0  0  1  0            999 V2000
    0.7145    6.7661    0.0000 N   0  0  0  0  0  0  0  0  0  0  0  0
    0.7145    5.9411    0.0000 C   0  0  0  0  0  0  0  0  0  0  0  0
    1.4289    5.5286    0.0000 C   0  0  0  0  0  0  0  0  0  0  0  0
    1.4289    4.7036    0.0000 C   0  0  0  0  0  0  0  0  0  0  0  0
    0.7145    4.2911    0.0000 N   0  0  0  0  0  0  0  0  0  0  0  0
    0.7145    3.4661    0.0000 C   0  0  2  0  0  0  0  0  0  0  0  0
    1.3819    2.9812    0.0000 C   0  0  0  0  0  0  0  0  0  0  0  0
    1.1270    2.1965    0.0000 S   0  0  0  0  0  0  0  0  0  0  0  0
    0.3020    2.1965    0.0000 C   0  0  2  0  0  0  0  0  0  0  0  0
   -0.1830    1.5291    0.0000 C   0  0  0  0  0  0  0  0  0  0  0  0
    0.1526    0.7754    0.0000 O   0  0  0  0  0  0  0  0  0  0  0  0
    0.0470    2.9812    0.0000 O   0  0  0  0  0  0  0  0  0  0  0  0
    0.0000    4.7036    0.0000 C   0  0  0  0  0  0  0  0  0  0  0  0
   -0.7145    4.2911    0.0000 O   0  0  0  0  0  0  0  0  0  0  0  0
    0.0000    5.5286    0.0000 N   0  0  0  0  0  0  0  0  0  0  0  0
  1  2  1  0  0  0  0
  2  3  1  0  0  0  0
  3  4  2  0  0  0  0
  4  5  1  0  0  0  0
  6  5  1  6  0  0  0
  6  7  1  0  0  0  0
  7  8  1  0  0  0  0
  9  8  1  0  0  0  0
  9 10  1  6  0  0  0
 10 11  1  0  0  0  0
  9 12  1  0  0  0  0
  6 12  1  0  0  0  0
  5 13  1  0  0  0  0
 13 14  2  0  0  0  0
 13 15  1  0  0  0  0
  2 15  2  0  0  0  0
M  END
>  <StandardizerResult>
Tautomerize


>  <CdId>
101

>  <Mol Weight>
229.25

>  <Formula>
C8H11N3O3S

>  <Molecule ChEMBL ID>
CHEMBL141

>  <Molecule Name>
LAMIVUDINE

>  <Molecule Max Phase>
4

>  <Molecular Weight>
229.26

>  <#RO5 Violations>
0

>  <AlogP>
-0.59

>  <Compound Key>
4172

>  <Standard Type>
pKa_B1

>  <Standard Value>
4.19

>  <Comment>
'B1 Functional Group: 4-Aminopyrimidin-2(1H)-one; Ionisation Formula: A0B1 (Functional Group: the part of the molecule the pKa refers to; Ionisation formula: AxBy where 'A' refers to acidic centers within the molecule that are appreciably ionised at a pH <= 11 and 'x' equals 0, 1 or 2; and 'B' refers to basic centers within the molecule that are appreciably ionised at a pH >= 2 and 'y' equals 0, 1, 2 or 3).'

>  <Potential Duplicate>
false

>  <Assay ChEMBL ID>
CHEMBL3301362

>  <Assay Description>
ASTRAZENECA: Most basic pKa value (pKa B1) determined by absorption and potentiometric titration using standard methodology from Sirius Analytical. Experimental range Bases: >= 2.

>  <Assay Type>
P

>  <BAO Format ID>
BAO_0000100

>  <BAO Label>
small-molecule physicochemical format

>  <Target ChEMBL ID>
CHEMBL2362975

>  <Target Name>
No relevant target

>  <Target Type>
NO TARGET

>  <Document ChEMBL ID>
CHEMBL3301361

>  <Source ID>
27

>  <Source Description>
AstraZeneca Deposited Data

>  <Strongest basic pKa>
4.3

>  <deltapKa>
-0.11170953952895157

>  <Strongest basic pKa_Taut>
4.3

>  <deltapKa_TAut>
-0.11170953952895157

$$$$

  Mrv1920 03272013312D          

 29 31  0  0  1  0            999 V2000
    4.9141   -1.5596    0.0000 C   0  0  0  0  0  0  0  0  0  0  0  0
    4.0984   -1.6826    0.0000 O   0  0  0  0  0  0  0  0  0  0  0  0
    3.5840   -1.0375    0.0000 C   0  0  0  0  0  0  0  0  0  0  0  0
    2.7682   -1.1605    0.0000 C   0  0  0  0  0  0  0  0  0  0  0  0
    2.2538   -0.5155    0.0000 C   0  0  0  0  0  0  0  0  0  0  0  0
    2.5552    0.2525    0.0000 C   0  0  0  0  0  0  0  0  0  0  0  0
    2.0408    0.8975    0.0000 C   0  0  2  0  0  0  0  0  0  0  0  0
    1.2365    0.7139    0.0000 S   0  0  0  0  0  0  0  0  0  0  0  0
    0.5915    1.2283    0.0000 C   0  0  0  0  0  0  0  0  0  0  0  0
   -0.1230    0.8158    0.0000 C   0  0  0  0  0  0  0  0  0  0  0  0
   -0.8374    1.2283    0.0000 C   0  0  0  0  0  0  0  0  0  0  0  0
   -0.8374    2.0533    0.0000 C   0  0  0  0  0  0  0  0  0  0  0  0
   -0.1230    2.4658    0.0000 C   0  0  0  0  0  0  0  0  0  0  0  0
    0.5915    2.0533    0.0000 C   0  0  0  0  0  0  0  0  0  0  0  0
    1.2365    2.5677    0.0000 N   0  0  0  0  0  0  0  0  0  0  0  0
    1.0529    3.3720    0.0000 C   0  0  0  0  0  0  0  0  0  0  0  0
    0.2646    3.6152    0.0000 C   0  0  0  0  0  0  0  0  0  0  0  0
    0.0810    4.4195    0.0000 N   0  0  0  0  0  0  0  0  0  0  0  0
   -0.7073    4.6626    0.0000 C   0  0  0  0  0  0  0  0  0  0  0  0
    0.6858    4.9806    0.0000 C   0  0  0  0  0  0  0  0  0  0  0  0
    2.0408    2.3841    0.0000 C   0  0  0  0  0  0  0  0  0  0  0  0
    2.5552    3.0291    0.0000 O   0  0  0  0  0  0  0  0  0  0  0  0
    2.3988    1.6408    0.0000 C   0  0  2  0  0  0  0  0  0  0  0  0
    3.2238    1.6408    0.0000 O   0  0  0  0  0  0  0  0  0  0  0  0
    3.6363    2.3553    0.0000 C   0  0  0  0  0  0  0  0  0  0  0  0
    3.2238    3.0697    0.0000 C   0  0  0  0  0  0  0  0  0  0  0  0
    4.4613    2.3553    0.0000 O   0  0  0  0  0  0  0  0  0  0  0  0
    3.3710    0.3754    0.0000 C   0  0  0  0  0  0  0  0  0  0  0  0
    3.8854   -0.2696    0.0000 C   0  0  0  0  0  0  0  0  0  0  0  0
  1  2  1  0  0  0  0
  2  3  1  0  0  0  0
  3  4  2  0  0  0  0
  4  5  1  0  0  0  0
  5  6  2  0  0  0  0
  7  6  1  6  0  0  0
  7  8  1  0  0  0  0
  8  9  1  0  0  0  0
  9 10  2  0  0  0  0
 10 11  1  0  0  0  0
 11 12  2  0  0  0  0
 12 13  1  0  0  0  0
 13 14  2  0  0  0  0
  9 14  1  0  0  0  0
 14 15  1  0  0  0  0
 15 16  1  0  0  0  0
 16 17  1  0  0  0  0
 17 18  1  0  0  0  0
 18 19  1  0  0  0  0
 18 20  1  0  0  0  0
 15 21  1  0  0  0  0
 21 22  2  0  0  0  0
 23 21  1  0  0  0  0
  7 23  1  0  0  0  0
 23 24  1  6  0  0  0
 24 25  1  0  0  0  0
 25 26  1  0  0  0  0
 25 27  2  0  0  0  0
  6 28  1  0  0  0  0
 28 29  2  0  0  0  0
  3 29  1  0  0  0  0
M  END
>  <StandardizerResult>
Tautomerize


>  <CdId>
211

>  <Mol Weight>
414.52

>  <Formula>
C22H26N2O4S

>  <Molecule ChEMBL ID>
CHEMBL23

>  <Molecule Name>
DILTIAZEM

>  <Molecule Max Phase>
4

>  <Molecular Weight>
414.53

>  <#RO5 Violations>
0

>  <AlogP>
3.37

>  <Compound Key>
632

>  <Standard Type>
pKa_B1

>  <Standard Value>
8.08

>  <Comment>
'B1 Functional Group: Tertiary amine; Ionisation Formula: A0B1 (Functional Group: the part of the molecule the pKa refers to; Ionisation formula: AxBy where 'A' refers to acidic centers within the molecule that are appreciably ionised at a pH <= 11 and 'x' equals 0, 1 or 2; and 'B' refers to basic centers within the molecule that are appreciably ionised at a pH >= 2 and 'y' equals 0, 1, 2 or 3).'

>  <Potential Duplicate>
false

>  <Assay ChEMBL ID>
CHEMBL3301362

>  <Assay Description>
ASTRAZENECA: Most basic pKa value (pKa B1) determined by absorption and potentiometric titration using standard methodology from Sirius Analytical. Experimental range Bases: >= 2.

>  <Assay Type>
P

>  <BAO Format ID>
BAO_0000100

>  <BAO Label>
small-molecule physicochemical format

>  <Target ChEMBL ID>
CHEMBL2362975

>  <Target Name>
No relevant target

>  <Target Type>
NO TARGET

>  <Document ChEMBL ID>
CHEMBL3301361

>  <Source ID>
27

>  <Source Description>
AstraZeneca Deposited Data

>  <Strongest basic pKa>
8.18

>  <deltapKa>
-0.09528019371589203

>  <Strongest basic pKa_Taut>
8.18

>  <deltapKa_TAut>
-0.09528019371589203

$$$$

  Mrv1920 03272013312D          

 23 26  0  0  0  0            999 V2000
    1.6288    0.2334    0.0000 C   0  0  0  0  0  0  0  0  0  0  0  0
    1.9486    0.9939    0.0000 C   0  0  0  0  0  0  0  0  0  0  0  0
    2.7519    1.1821    0.0000 N   0  0  0  0  0  0  0  0  0  0  0  0
    2.8210    2.0042    0.0000 C   0  0  0  0  0  0  0  0  0  0  0  0
    2.0605    2.3241    0.0000 C   0  0  0  0  0  0  0  0  0  0  0  0
    1.5214    1.6996    0.0000 N   0  0  0  0  0  0  0  0  0  0  0  0
    0.6970    1.7318    0.0000 C   0  0  0  0  0  0  0  0  0  0  0  0
    0.3659    0.9762    0.0000 C   0  0  0  0  0  0  0  0  0  0  0  0
   -0.4541    0.8852    0.0000 C   0  0  0  0  0  0  0  0  0  0  0  0
   -0.9429    1.5498    0.0000 C   0  0  0  0  0  0  0  0  0  0  0  0
   -1.7629    1.4587    0.0000 Cl  0  0  0  0  0  0  0  0  0  0  0  0
   -0.6118    2.3054    0.0000 C   0  0  0  0  0  0  0  0  0  0  0  0
    0.2082    2.3964    0.0000 C   0  0  0  0  0  0  0  0  0  0  0  0
    0.4230    3.1929    0.0000 C   0  0  0  0  0  0  0  0  0  0  0  0
   -0.2014    3.7321    0.0000 C   0  0  0  0  0  0  0  0  0  0  0  0
   -0.9806    3.4609    0.0000 C   0  0  0  0  0  0  0  0  0  0  0  0
   -1.6050    4.0001    0.0000 C   0  0  0  0  0  0  0  0  0  0  0  0
   -1.4503    4.8104    0.0000 C   0  0  0  0  0  0  0  0  0  0  0  0
   -0.6712    5.0816    0.0000 C   0  0  0  0  0  0  0  0  0  0  0  0
   -0.0467    4.5425    0.0000 C   0  0  0  0  0  0  0  0  0  0  0  0
    0.7324    4.8137    0.0000 F   0  0  0  0  0  0  0  0  0  0  0  0
    1.1797    3.5216    0.0000 N   0  0  0  0  0  0  0  0  0  0  0  0
    1.9085    3.1349    0.0000 C   0  0  0  0  0  0  0  0  0  0  0  0
  1  2  1  0  0  0  0
  2  3  2  0  0  0  0
  3  4  1  0  0  0  0
  4  5  2  0  0  0  0
  5  6  1  0  0  0  0
  2  6  1  0  0  0  0
  6  7  1  0  0  0  0
  7  8  2  0  0  0  0
  8  9  1  0  0  0  0
  9 10  2  0  0  0  0
 10 11  1  0  0  0  0
 10 12  1  0  0  0  0
 12 13  2  0  0  0  0
  7 13  1  0  0  0  0
 13 14  1  0  0  0  0
 14 15  1  0  0  0  0
 15 16  2  0  0  0  0
 16 17  1  0  0  0  0
 17 18  2  0  0  0  0
 18 19  1  0  0  0  0
 19 20  2  0  0  0  0
 15 20  1  0  0  0  0
 20 21  1  0  0  0  0
 14 22  2  0  0  0  0
 22 23  1  0  0  0  0
  5 23  1  0  0  0  0
M  END
>  <StandardizerResult>
Tautomerize


>  <CdId>
130

>  <Mol Weight>
325.77

>  <Formula>
C18H13ClFN3

>  <Molecule ChEMBL ID>
CHEMBL655

>  <Molecule Name>
MIDAZOLAM

>  <Molecule Max Phase>
4

>  <Molecular Weight>
325.77

>  <#RO5 Violations>
0

>  <AlogP>
4.32

>  <Compound Key>
1215

>  <Standard Type>
pKa_B1

>  <Standard Value>
6.11

>  <Comment>
'B1 Functional Group: 4H-imidazo[1,5-a][1,4]benzodiazepine; Ionisation Formula: A0B1 (Functional Group: the part of the molecule the pKa refers to; Ionisation formula: AxBy where 'A' refers to acidic centers within the molecule that are appreciably ionised at a pH <= 11 and 'x' equals 0, 1 or 2; and 'B' refers to basic centers within the molecule that are appreciably ionised at a pH >= 2 and 'y' equals 0, 1, 2 or 3).'

>  <Potential Duplicate>
false

>  <Assay ChEMBL ID>
CHEMBL3301362

>  <Assay Description>
ASTRAZENECA: Most basic pKa value (pKa B1) determined by absorption and potentiometric titration using standard methodology from Sirius Analytical. Experimental range Bases: >= 2.

>  <Assay Type>
P

>  <BAO Format ID>
BAO_0000100

>  <BAO Label>
small-molecule physicochemical format

>  <Target ChEMBL ID>
CHEMBL2362975

>  <Target Name>
No relevant target

>  <Target Type>
NO TARGET

>  <Document ChEMBL ID>
CHEMBL3301361

>  <Source ID>
27

>  <Source Description>
AstraZeneca Deposited Data

>  <Strongest basic pKa>
6.19

>  <deltapKa>
-0.08491888032930905

>  <Strongest basic pKa_Taut>
6.19

>  <deltapKa_TAut>
-0.08491888032930905

$$$$

  Mrv1920 03272013312D          

 13 14  0  0  0  0            999 V2000
    0.7145   -2.8875    0.0000 O   0  0  0  0  0  0  0  0  0  0  0  0
    1.4289   -2.4750    0.0000 C   0  0  0  0  0  0  0  0  0  0  0  0
    1.4289   -1.6500    0.0000 C   0  0  0  0  0  0  0  0  0  0  0  0
    0.7145   -1.2375    0.0000 C   0  0  0  0  0  0  0  0  0  0  0  0
    0.7145   -0.4125    0.0000 C   0  0  0  0  0  0  0  0  0  0  0  0
    1.4289    0.0000    0.0000 N   0  0  0  0  0  0  0  0  0  0  0  0
    2.1434   -0.4125    0.0000 C   0  0  0  0  0  0  0  0  0  0  0  0
    2.8579    0.0000    0.0000 C   0  0  0  0  0  0  0  0  0  0  0  0
    2.8579    0.8250    0.0000 O   0  0  0  0  0  0  0  0  0  0  0  0
    3.5724   -0.4125    0.0000 C   0  0  0  0  0  0  0  0  0  0  0  0
    3.5724   -1.2375    0.0000 C   0  0  0  0  0  0  0  0  0  0  0  0
    2.8579   -1.6500    0.0000 C   0  0  0  0  0  0  0  0  0  0  0  0
    2.1434   -1.2375    0.0000 C   0  0  0  0  0  0  0  0  0  0  0  0
  1  2  1  0  0  0  0
  2  3  1  0  0  0  0
  3  4  2  0  0  0  0
  4  5  1  0  0  0  0
  5  6  2  0  0  0  0
  6  7  1  0  0  0  0
  7  8  2  0  0  0  0
  8  9  1  0  0  0  0
  8 10  1  0  0  0  0
 10 11  2  0  0  0  0
 11 12  1  0  0  0  0
 12 13  2  0  0  0  0
  3 13  1  0  0  0  0
  7 13  1  0  0  0  0
M  END
>  <StandardizerResult>
Tautomerize


>  <CdId>
151

>  <Mol Weight>
175.19

>  <Formula>
C10H9NO2

>  <Molecule ChEMBL ID>
CHEMBL1349378

>  <Molecule Max Phase>
0

>  <Molecular Weight>
175.19

>  <#RO5 Violations>
0

>  <AlogP>
1.43

>  <Compound Key>
5675

>  <Standard Type>
pKa_B1

>  <Standard Value>
4.64

>  <Comment>
'B1 Functional Group: Quinolin-8-ol; Ionisation Formula: A1B1 (Functional Group: the part of the molecule the pKa refers to; Ionisation formula: AxBy where 'A' refers to acidic centers within the molecule that are appreciably ionised at a pH <= 11 and 'x' equals 0, 1 or 2; and 'B' refers to basic centers within the molecule that are appreciably ionised at a pH >= 2 and 'y' equals 0, 1, 2 or 3).'

>  <Potential Duplicate>
false

>  <Assay ChEMBL ID>
CHEMBL3301362

>  <Assay Description>
ASTRAZENECA: Most basic pKa value (pKa B1) determined by absorption and potentiometric titration using standard methodology from Sirius Analytical. Experimental range Bases: >= 2.

>  <Assay Type>
P

>  <BAO Format ID>
BAO_0000100

>  <BAO Label>
small-molecule physicochemical format

>  <Target ChEMBL ID>
CHEMBL2362975

>  <Target Name>
No relevant target

>  <Target Type>
NO TARGET

>  <Document ChEMBL ID>
CHEMBL3301361

>  <Source ID>
27

>  <Source Description>
AstraZeneca Deposited Data

>  <Strongest basic pKa>
4.69

>  <deltapKa>
-0.0540777989885628

>  <Strongest basic pKa_Taut>
4.69

>  <deltapKa_TAut>
-0.0540777989885628

$$$$

  Mrv1920 03272013312D          

 32 35  0  0  0  0            999 V2000
    7.1447    2.4750    0.0000 O   0  0  0  0  0  0  0  0  0  0  0  0
    6.4302    2.0625    0.0000 C   0  0  0  0  0  0  0  0  0  0  0  0
    5.7158    2.4750    0.0000 O   0  0  0  0  0  0  0  0  0  0  0  0
    6.4302    1.2375    0.0000 C   0  0  0  0  0  0  0  0  0  0  0  0
    7.1447    0.8250    0.0000 C   0  0  0  0  0  0  0  0  0  0  0  0
    7.1447    0.0000    0.0000 C   0  0  0  0  0  0  0  0  0  0  0  0
    6.4302   -0.4125    0.0000 C   0  0  0  0  0  0  0  0  0  0  0  0
    5.7158    0.0000    0.0000 C   0  0  0  0  0  0  0  0  0  0  0  0
    5.0013   -0.4125    0.0000 C   0  0  0  0  0  0  0  0  0  0  0  0
    4.2868    0.0000    0.0000 N   0  0  0  0  0  0  0  0  0  0  0  0
    3.5724   -0.4125    0.0000 C   0  0  0  0  0  0  0  0  0  0  0  0
    2.8579    0.0000    0.0000 C   0  0  0  0  0  0  0  0  0  0  0  0
    2.8579    0.8250    0.0000 C   0  0  0  0  0  0  0  0  0  0  0  0
    2.1434    1.2375    0.0000 C   0  0  0  0  0  0  0  0  0  0  0  0
    2.1434    2.0625    0.0000 N   0  0  0  0  0  0  0  0  0  0  0  0
    1.4289    2.4750    0.0000 C   0  0  0  0  0  0  0  0  0  0  0  0
    1.4289    3.3000    0.0000 C   0  0  0  0  0  0  0  0  0  0  0  0
    2.1434    3.7125    0.0000 C   0  0  0  0  0  0  0  0  0  0  0  0
    2.1434    4.5375    0.0000 O   0  0  0  0  0  0  0  0  0  0  0  0
    2.8579    4.9500    0.0000 C   0  0  0  0  0  0  0  0  0  0  0  0
    2.8579    5.7750    0.0000 C   0  0  0  0  0  0  0  0  0  0  0  0
    3.5724    6.1875    0.0000 C   0  0  0  0  0  0  0  0  0  0  0  0
    4.2868    5.7750    0.0000 C   0  0  0  0  0  0  0  0  0  0  0  0
    5.0013    6.1875    0.0000 Cl  0  0  0  0  0  0  0  0  0  0  0  0
    4.2868    4.9500    0.0000 C   0  0  0  0  0  0  0  0  0  0  0  0
    5.0013    4.5375    0.0000 Cl  0  0  0  0  0  0  0  0  0  0  0  0
    3.5724    4.5375    0.0000 C   0  0  0  0  0  0  0  0  0  0  0  0
    2.8579    3.3000    0.0000 C   0  0  0  0  0  0  0  0  0  0  0  0
    2.8579    2.4750    0.0000 C   0  0  0  0  0  0  0  0  0  0  0  0
    3.5724    1.2375    0.0000 C   0  0  0  0  0  0  0  0  0  0  0  0
    4.2868    0.8250    0.0000 C   0  0  0  0  0  0  0  0  0  0  0  0
    5.7158    0.8250    0.0000 C   0  0  0  0  0  0  0  0  0  0  0  0
  1  2  2  0  0  0  0
  2  3  1  0  0  0  0
  2  4  1  0  0  0  0
  4  5  2  0  0  0  0
  5  6  1  0  0  0  0
  6  7  2  0  0  0  0
  7  8  1  0  0  0  0
  8  9  1  0  0  0  0
  9 10  1  0  0  0  0
 10 11  1  0  0  0  0
 11 12  1  0  0  0  0
 12 13  1  0  0  0  0
 13 14  1  0  0  0  0
 14 15  1  0  0  0  0
 15 16  1  0  0  0  0
 16 17  1  0  0  0  0
 17 18  1  0  0  0  0
 18 19  1  0  0  0  0
 19 20  1  0  0  0  0
 20 21  2  0  0  0  0
 21 22  1  0  0  0  0
 22 23  2  0  0  0  0
 23 24  1  0  0  0  0
 23 25  1  0  0  0  0
 25 26  1  0  0  0  0
 25 27  2  0  0  0  0
 20 27  1  0  0  0  0
 18 28  1  0  0  0  0
 28 29  1  0  0  0  0
 15 29  1  0  0  0  0
 13 30  1  0  0  0  0
 30 31  1  0  0  0  0
 10 31  1  0  0  0  0
  8 32  2  0  0  0  0
  4 32  1  0  0  0  0
M  END
>  <StandardizerResult>
Tautomerize


>  <CdId>
86

>  <Mol Weight>
477.43

>  <Formula>
C25H30Cl2N2O3

>  <Molecule ChEMBL ID>
CHEMBL2158832

>  <Molecule Max Phase>
0

>  <Molecular Weight>
477.43

>  <#RO5 Violations>
1

>  <AlogP>
5.45

>  <Compound Key>
2371

>  <Standard Type>
pKa_B1

>  <Standard Value>
9.6

>  <Comment>
'B1 Functional Group: Piperidine; Ionisation Formula: A1B2 (Functional Group: the part of the molecule the pKa refers to; Ionisation formula: AxBy where 'A' refers to acidic centers within the molecule that are appreciably ionised at a pH <= 11 and 'x' equals 0, 1 or 2; and 'B' refers to basic centers within the molecule that are appreciably ionised at a pH >= 2 and 'y' equals 0, 1, 2 or 3).'

>  <Potential Duplicate>
false

>  <Assay ChEMBL ID>
CHEMBL3301362

>  <Assay Description>
ASTRAZENECA: Most basic pKa value (pKa B1) determined by absorption and potentiometric titration using standard methodology from Sirius Analytical. Experimental range Bases: >= 2.

>  <Assay Type>
P

>  <BAO Format ID>
BAO_0000100

>  <BAO Label>
small-molecule physicochemical format

>  <Target ChEMBL ID>
CHEMBL2362975

>  <Target Name>
No relevant target

>  <Target Type>
NO TARGET

>  <Document ChEMBL ID>
CHEMBL3301361

>  <Source ID>
27

>  <Source Description>
AstraZeneca Deposited Data

>  <Strongest basic pKa>
9.65

>  <deltapKa>
-0.05227358436858509

>  <Strongest basic pKa_Taut>
9.65

>  <deltapKa_TAut>
-0.05227358436858509

$$$$

  Mrv1920 03272013312D          

 35 38  0  0  1  0            999 V2000
    2.3029   -3.5802    0.0000 N   0  0  0  0  0  0  0  0  0  0  0  0
    1.5060   -3.3667    0.0000 C   0  0  0  0  0  0  0  0  0  0  0  0
    0.9227   -3.9500    0.0000 C   0  0  0  0  0  0  0  0  0  0  0  0
    1.1362   -4.7469    0.0000 C   0  0  0  0  0  0  0  0  0  0  0  0
    0.5528   -5.3303    0.0000 C   0  0  0  0  0  0  0  0  0  0  0  0
   -0.2441   -5.1167    0.0000 C   0  0  0  0  0  0  0  0  0  0  0  0
   -0.4576   -4.3199    0.0000 C   0  0  0  0  0  0  0  0  0  0  0  0
    0.1258   -3.7365    0.0000 C   0  0  0  0  0  0  0  0  0  0  0  0
   -0.0877   -2.9396    0.0000 C   0  0  0  0  0  0  0  0  0  0  0  0
    0.4956   -2.3562    0.0000 C   0  0  0  0  0  0  0  0  0  0  0  0
    1.2925   -2.5698    0.0000 O   0  0  0  0  0  0  0  0  0  0  0  0
    0.2821   -1.5593    0.0000 N   0  0  0  0  0  0  0  0  0  0  0  0
    0.8655   -0.9760    0.0000 C   0  0  2  0  0  0  0  0  0  0  0  0
    0.8655   -0.1510    0.0000 C   0  0  0  0  0  0  0  0  0  0  0  0
    0.2821    0.4324    0.0000 O   0  0  0  0  0  0  0  0  0  0  0  0
    1.6905   -0.1510    0.0000 N   0  0  0  0  0  0  0  0  0  0  0  0
    2.4049    0.2615    0.0000 C   0  0  0  0  0  0  0  0  0  0  0  0
    2.4049    1.0865    0.0000 C   0  0  0  0  0  0  0  0  0  0  0  0
    3.1194    1.4990    0.0000 O   0  0  0  0  0  0  0  0  0  0  0  0
    1.6905    1.4990    0.0000 O   0  0  0  0  0  0  0  0  0  0  0  0
    3.1194   -0.1510    0.0000 C   0  0  0  0  0  0  0  0  0  0  0  0
    3.8339    0.2615    0.0000 C   0  0  0  0  0  0  0  0  0  0  0  0
    4.5483   -0.1510    0.0000 S   0  0  0  0  0  0  0  0  0  0  0  0
    5.2628    0.2615    0.0000 C   0  0  0  0  0  0  0  0  0  0  0  0
    5.3490    1.0820    0.0000 N   0  0  0  0  0  0  0  0  0  0  0  0
    6.1560    1.2535    0.0000 N   0  0  0  0  0  0  0  0  0  0  0  0
    6.5685    0.5391    0.0000 N   0  0  0  0  0  0  0  0  0  0  0  0
    6.0165   -0.0740    0.0000 N   0  0  0  0  0  0  0  0  0  0  0  0
    6.1880   -0.8810    0.0000 C   0  0  0  0  0  0  0  0  0  0  0  0
    6.9726   -1.1360    0.0000 C   0  0  0  0  0  0  0  0  0  0  0  0
    7.5857   -0.5839    0.0000 O   0  0  0  0  0  0  0  0  0  0  0  0
    7.1442   -1.9429    0.0000 O   0  0  0  0  0  0  0  0  0  0  0  0
    3.1194   -0.9760    0.0000 C   0  0  0  0  0  0  0  0  0  0  0  0
    2.4049   -1.3885    0.0000 S   0  0  0  0  0  0  0  0  0  0  0  0
    1.6905   -0.9760    0.0000 C   0  0  2  0  0  0  0  0  0  0  0  0
  1  2  1  0  0  0  0
  2  3  1  0  0  0  0
  3  4  2  0  0  0  0
  4  5  1  0  0  0  0
  5  6  2  0  0  0  0
  6  7  1  0  0  0  0
  7  8  2  0  0  0  0
  3  8  1  0  0  0  0
  8  9  1  0  0  0  0
  9 10  1  0  0  0  0
 10 11  2  0  0  0  0
 10 12  1  0  0  0  0
 13 12  1  6  0  0  0
 13 14  1  0  0  0  0
 14 15  2  0  0  0  0
 14 16  1  0  0  0  0
 16 17  1  0  0  0  0
 17 18  1  0  0  0  0
 18 19  2  0  0  0  0
 18 20  1  0  0  0  0
 17 21  2  0  0  0  0
 21 22  1  0  0  0  0
 22 23  1  0  0  0  0
 23 24  1  0  0  0  0
 24 25  2  0  0  0  0
 25 26  1  0  0  0  0
 26 27  2  0  0  0  0
 27 28  1  0  0  0  0
 24 28  1  0  0  0  0
 28 29  1  0  0  0  0
 29 30  1  0  0  0  0
 30 31  2  0  0  0  0
 30 32  1  0  0  0  0
 21 33  1  0  0  0  0
 33 34  1  0  0  0  0
 35 34  1  0  0  0  0
 13 35  1  0  0  0  0
 35 16  1  6  0  0  0
M  END
>  <StandardizerResult>
Tautomerize


>  <CdId>
230

>  <Mol Weight>
519.55

>  <Formula>
C20H21N7O6S2

>  <Molecule ChEMBL ID>
CHEMBL1201046

>  <Molecule Name>
CEFORANIDE

>  <Molecule Max Phase>
4

>  <Molecular Weight>
519.57

>  <#RO5 Violations>
2

>  <AlogP>
-0.71

>  <Compound Key>
506

>  <Standard Type>
pKa_B1

>  <Standard Value>
8.88

>  <Comment>
'B1 Functional Group: Primary amine; Ionisation Formula: A2B1 (Functional Group: the part of the molecule the pKa refers to; Ionisation formula: AxBy where 'A' refers to acidic centers within the molecule that are appreciably ionised at a pH <= 11 and 'x' equals 0, 1 or 2; and 'B' refers to basic centers within the molecule that are appreciably ionised at a pH >= 2 and 'y' equals 0, 1, 2 or 3).'

>  <Potential Duplicate>
false

>  <Assay ChEMBL ID>
CHEMBL3301362

>  <Assay Description>
ASTRAZENECA: Most basic pKa value (pKa B1) determined by absorption and potentiometric titration using standard methodology from Sirius Analytical. Experimental range Bases: >= 2.

>  <Assay Type>
P

>  <BAO Format ID>
BAO_0000100

>  <BAO Label>
small-molecule physicochemical format

>  <Target ChEMBL ID>
CHEMBL2362975

>  <Target Name>
No relevant target

>  <Target Type>
NO TARGET

>  <Document ChEMBL ID>
CHEMBL3301361

>  <Source ID>
27

>  <Source Description>
AstraZeneca Deposited Data

>  <Strongest basic pKa>
8.93

>  <deltapKa>
-0.050967203204928424

>  <Strongest basic pKa_Taut>
8.93

>  <deltapKa_TAut>
-0.050967203204928424

$$$$

  Mrv1920 03272013312D          

 18 19  0  0  0  0            999 V2000
    0.7145   -3.7125    0.0000 C   0  0  0  0  0  0  0  0  0  0  0  0
    1.4289   -4.1250    0.0000 C   0  0  0  0  0  0  0  0  0  0  0  0
    1.4289   -4.9500    0.0000 C   0  0  0  0  0  0  0  0  0  0  0  0
    2.1434   -3.7125    0.0000 N   0  0  0  0  0  0  0  0  0  0  0  0
    2.8579   -4.1250    0.0000 C   0  0  0  0  0  0  0  0  0  0  0  0
    3.5724   -3.7125    0.0000 C   0  0  0  0  0  0  0  0  0  0  0  0
    3.5724   -2.8875    0.0000 O   0  0  0  0  0  0  0  0  0  0  0  0
    4.2868   -4.1250    0.0000 C   0  0  0  0  0  0  0  0  0  0  0  0
    5.0013   -3.7125    0.0000 O   0  0  0  0  0  0  0  0  0  0  0  0
    5.7158   -4.1250    0.0000 C   0  0  0  0  0  0  0  0  0  0  0  0
    6.4302   -3.7125    0.0000 C   0  0  0  0  0  0  0  0  0  0  0  0
    7.1447   -4.1250    0.0000 C   0  0  0  0  0  0  0  0  0  0  0  0
    7.1447   -4.9500    0.0000 C   0  0  0  0  0  0  0  0  0  0  0  0
    6.4302   -5.3625    0.0000 C   0  0  0  0  0  0  0  0  0  0  0  0
    6.2587   -6.1695    0.0000 N   0  0  0  0  0  0  0  0  0  0  0  0
    5.4382   -6.2557    0.0000 C   0  0  0  0  0  0  0  0  0  0  0  0
    5.1027   -5.5020    0.0000 C   0  0  0  0  0  0  0  0  0  0  0  0
    5.7158   -4.9500    0.0000 C   0  0  0  0  0  0  0  0  0  0  0  0
  1  2  1  0  0  0  0
  2  3  1  0  0  0  0
  2  4  1  0  0  0  0
  4  5  1  0  0  0  0
  5  6  1  0  0  0  0
  6  7  1  0  0  0  0
  6  8  1  0  0  0  0
  8  9  1  0  0  0  0
  9 10  1  0  0  0  0
 10 11  1  0  0  0  0
 11 12  2  0  0  0  0
 12 13  1  0  0  0  0
 13 14  2  0  0  0  0
 14 15  1  0  0  0  0
 15 16  1  0  0  0  0
 16 17  2  0  0  0  0
 17 18  1  0  0  0  0
 10 18  2  0  0  0  0
 14 18  1  0  0  0  0
M  END
>  <StandardizerResult>
Tautomerize


>  <CdId>
204

>  <Mol Weight>
248.33

>  <Formula>
C14H20N2O2

>  <Molecule ChEMBL ID>
CHEMBL500

>  <Molecule Name>
PINDOLOL

>  <Molecule Max Phase>
4

>  <Molecular Weight>
248.33

>  <#RO5 Violations>
0

>  <AlogP>
1.91

>  <Compound Key>
PINDOLOL

>  <Standard Type>
pKa_B1

>  <Standard Value>
9.62

>  <Comment>
'B1 Functional Group: Secondary amine; Ionisation Formula: A0B1 (Functional Group: the part of the molecule the pKa refers to; Ionisation formula: AxBy where 'A' refers to acidic centers within the molecule that are appreciably ionised at a pH <= 11 and 'x' equals 0, 1 or 2; and 'B' refers to basic centers within the molecule that are appreciably ionised at a pH >= 2 and 'y' equals 0, 1, 2 or 3).'

>  <Potential Duplicate>
false

>  <Assay ChEMBL ID>
CHEMBL3301362

>  <Assay Description>
ASTRAZENECA: Most basic pKa value (pKa B1) determined by absorption and potentiometric titration using standard methodology from Sirius Analytical. Experimental range Bases: >= 2.

>  <Assay Type>
P

>  <BAO Format ID>
BAO_0000100

>  <BAO Label>
small-molecule physicochemical format

>  <Target ChEMBL ID>
CHEMBL2362975

>  <Target Name>
No relevant target

>  <Target Type>
NO TARGET

>  <Document ChEMBL ID>
CHEMBL3301361

>  <Source ID>
27

>  <Source Description>
AstraZeneca Deposited Data

>  <Strongest basic pKa>
9.67

>  <deltapKa>
-0.04616635547521852

>  <Strongest basic pKa_Taut>
9.67

>  <deltapKa_TAut>
-0.04616635547521852

$$$$

  Mrv1920 03272013312D          

 31 34  0  0  0  0            999 V2000
    5.7158   -1.6500    0.0000 O   0  0  0  0  0  0  0  0  0  0  0  0
    6.4302   -1.2375    0.0000 C   0  0  0  0  0  0  0  0  0  0  0  0
    6.4302   -0.4125    0.0000 O   0  0  0  0  0  0  0  0  0  0  0  0
    7.1447   -1.6500    0.0000 C   0  0  0  0  0  0  0  0  0  0  0  0
    7.1447   -2.4750    0.0000 C   0  0  0  0  0  0  0  0  0  0  0  0
    7.8592   -2.8875    0.0000 C   0  0  0  0  0  0  0  0  0  0  0  0
    7.8592   -3.7125    0.0000 C   0  0  0  0  0  0  0  0  0  0  0  0
    7.1447   -4.1250    0.0000 C   0  0  0  0  0  0  0  0  0  0  0  0
    6.4302   -3.7125    0.0000 C   0  0  0  0  0  0  0  0  0  0  0  0
    6.4302   -2.8875    0.0000 C   0  0  0  0  0  0  0  0  0  0  0  0
    7.8592   -1.2375    0.0000 N   0  0  0  0  0  0  0  0  0  0  0  0
    7.8592   -0.4125    0.0000 C   0  0  0  0  0  0  0  0  0  0  0  0
    8.5737    0.0000    0.0000 C   0  0  0  0  0  0  0  0  0  0  0  0
    9.2881   -0.4125    0.0000 C   0  0  0  0  0  0  0  0  0  0  0  0
   10.0026    0.0000    0.0000 N   0  0  0  0  0  0  0  0  0  0  0  0
   10.0026    0.8250    0.0000 C   0  0  0  0  0  0  0  0  0  0  0  0
   10.7171    1.2375    0.0000 C   0  0  0  0  0  0  0  0  0  0  0  0
   11.4315    0.8250    0.0000 C   0  0  0  0  0  0  0  0  0  0  0  0
   12.1460    1.2375    0.0000 O   0  0  0  0  0  0  0  0  0  0  0  0
   12.8605    0.8250    0.0000 C   0  0  0  0  0  0  0  0  0  0  0  0
   13.5749    1.2375    0.0000 C   0  0  0  0  0  0  0  0  0  0  0  0
   14.2894    0.8250    0.0000 C   0  0  0  0  0  0  0  0  0  0  0  0
   14.2894    0.0000    0.0000 C   0  0  0  0  0  0  0  0  0  0  0  0
   15.0039   -0.4125    0.0000 Cl  0  0  0  0  0  0  0  0  0  0  0  0
   13.5749   -0.4125    0.0000 C   0  0  0  0  0  0  0  0  0  0  0  0
   13.5749   -1.2375    0.0000 Cl  0  0  0  0  0  0  0  0  0  0  0  0
   12.8605    0.0000    0.0000 C   0  0  0  0  0  0  0  0  0  0  0  0
   11.4315    0.0000    0.0000 C   0  0  0  0  0  0  0  0  0  0  0  0
   10.7171   -0.4125    0.0000 C   0  0  0  0  0  0  0  0  0  0  0  0
    9.2881   -1.2375    0.0000 C   0  0  0  0  0  0  0  0  0  0  0  0
    8.5737   -1.6500    0.0000 C   0  0  0  0  0  0  0  0  0  0  0  0
  1  2  2  0  0  0  0
  2  3  1  0  0  0  0
  2  4  1  0  0  0  0
  4  5  1  0  0  0  0
  5  6  2  0  0  0  0
  6  7  1  0  0  0  0
  7  8  2  0  0  0  0
  8  9  1  0  0  0  0
  9 10  2  0  0  0  0
  5 10  1  0  0  0  0
  4 11  1  0  0  0  0
 11 12  1  0  0  0  0
 12 13  1  0  0  0  0
 13 14  1  0  0  0  0
 14 15  1  0  0  0  0
 15 16  1  0  0  0  0
 16 17  1  0  0  0  0
 17 18  1  0  0  0  0
 18 19  1  0  0  0  0
 19 20  1  0  0  0  0
 20 21  2  0  0  0  0
 21 22  1  0  0  0  0
 22 23  2  0  0  0  0
 23 24  1  0  0  0  0
 23 25  1  0  0  0  0
 25 26  1  0  0  0  0
 25 27  2  0  0  0  0
 20 27  1  0  0  0  0
 18 28  1  0  0  0  0
 28 29  1  0  0  0  0
 15 29  1  0  0  0  0
 14 30  1  0  0  0  0
 30 31  1  0  0  0  0
 11 31  1  0  0  0  0
M  END
>  <StandardizerResult>
Tautomerize


>  <CdId>
200

>  <Mol Weight>
463.4

>  <Formula>
C24H28Cl2N2O3

>  <Molecule ChEMBL ID>
CHEMBL2158815

>  <Molecule Max Phase>
0

>  <Molecular Weight>
463.41

>  <#RO5 Violations>
1

>  <AlogP>
5.13

>  <Compound Key>
2536

>  <Standard Type>
pKa_B1

>  <Standard Value>
9.1

>  <Comment>
'B1 Functional Group: Piperidine; Ionisation Formula: A1B2 (Functional Group: the part of the molecule the pKa refers to; Ionisation formula: AxBy where 'A' refers to acidic centers within the molecule that are appreciably ionised at a pH <= 11 and 'x' equals 0, 1 or 2; and 'B' refers to basic centers within the molecule that are appreciably ionised at a pH >= 2 and 'y' equals 0, 1, 2 or 3).'

>  <Potential Duplicate>
false

>  <Assay ChEMBL ID>
CHEMBL3301362

>  <Assay Description>
ASTRAZENECA: Most basic pKa value (pKa B1) determined by absorption and potentiometric titration using standard methodology from Sirius Analytical. Experimental range Bases: >= 2.

>  <Assay Type>
P

>  <BAO Format ID>
BAO_0000100

>  <BAO Label>
small-molecule physicochemical format

>  <Target ChEMBL ID>
CHEMBL2362975

>  <Target Name>
No relevant target

>  <Target Type>
NO TARGET

>  <Document ChEMBL ID>
CHEMBL3301361

>  <Source ID>
27

>  <Source Description>
AstraZeneca Deposited Data

>  <Strongest basic pKa>
9.14

>  <deltapKa>
-0.04423751023297129

>  <Strongest basic pKa_Taut>
9.14

>  <deltapKa_TAut>
-0.04423751023297129

$$$$

  Mrv1920 03272013312D          

 13 15  0  0  0  0            999 V2000
    0.8517   -2.4835    0.0000 C   0  0  0  0  0  0  0  0  0  0  0  0
    0.8517   -1.6585    0.0000 C   0  0  0  0  0  0  0  0  0  0  0  0
    0.1163   -2.0322    0.0000 C   0  0  0  0  0  0  0  0  0  0  0  0
    0.5657   -1.2419    0.0000 C   0  0  0  0  0  0  0  0  0  0  0  0
    1.3012   -1.6156    0.0000 C   0  0  0  0  0  0  0  0  0  0  0  0
    2.0368   -1.2419    0.0000 C   0  0  0  0  0  0  0  0  0  0  0  0
    2.8344   -1.4529    0.0000 C   0  0  0  0  0  0  0  0  0  0  0  0
    1.5873   -2.0322    0.0000 C   0  0  0  0  0  0  0  0  0  0  0  0
    2.0368   -0.4945    0.0000 C   0  0  0  0  0  0  0  0  0  0  0  0
    1.3012   -0.1208    0.0000 C   0  0  0  0  0  0  0  0  0  0  0  0
    1.3012    0.7042    0.0000 N   0  0  0  0  0  0  0  0  0  0  0  0
    0.5657   -0.4945    0.0000 C   0  0  0  0  0  0  0  0  0  0  0  0
    0.8517   -0.9111    0.0000 C   0  0  0  0  0  0  0  0  0  0  0  0
  1  2  1  0  0  0  0
  2  3  1  0  0  0  0
  3  4  1  0  0  0  0
  4  5  1  0  0  0  0
  5  6  1  0  0  0  0
  6  7  1  0  0  0  0
  6  8  1  0  0  0  0
  2  8  1  0  0  0  0
 10 13  1  0  0  0  0
  9 10  1  0  0  0  0
 10 11  1  0  0  0  0
 10 12  1  0  0  0  0
  4 12  1  0  0  0  0
  6  9  1  0  0  0  0
  2 13  1  0  0  0  0
M  END
>  <StandardizerResult>
Tautomerize


>  <CdId>
140

>  <Mol Weight>
179.31

>  <Formula>
C12H21N

>  <Molecule ChEMBL ID>
CHEMBL807

>  <Molecule Name>
MEMANTINE

>  <Molecule Max Phase>
4

>  <Molecular Weight>
179.31

>  <#RO5 Violations>
0

>  <AlogP>
2.69

>  <Compound Key>
473

>  <Standard Type>
pKa_B1

>  <Standard Value>
10.66

>  <Comment>
'B1 Functional Group: Primary amine; Ionisation Formula: A0B1 (Functional Group: the part of the molecule the pKa refers to; Ionisation formula: AxBy where 'A' refers to acidic centers within the molecule that are appreciably ionised at a pH <= 11 and 'x' equals 0, 1 or 2; and 'B' refers to basic centers within the molecule that are appreciably ionised at a pH >= 2 and 'y' equals 0, 1, 2 or 3).'

>  <Potential Duplicate>
false

>  <Assay ChEMBL ID>
CHEMBL3301362

>  <Assay Description>
ASTRAZENECA: Most basic pKa value (pKa B1) determined by absorption and potentiometric titration using standard methodology from Sirius Analytical. Experimental range Bases: >= 2.

>  <Assay Type>
P

>  <BAO Format ID>
BAO_0000100

>  <BAO Label>
small-molecule physicochemical format

>  <Target ChEMBL ID>
CHEMBL2362975

>  <Target Name>
No relevant target

>  <Target Type>
NO TARGET

>  <Document ChEMBL ID>
CHEMBL3301361

>  <Source ID>
27

>  <Source Description>
AstraZeneca Deposited Data

>  <Strongest basic pKa>
10.7

>  <deltapKa>
-0.03607190540568794

>  <Strongest basic pKa_Taut>
10.7

>  <deltapKa_TAut>
-0.03607190540568794

$$$$

  Mrv1920 03272013312D          

 21 23  0  0  0  0            999 V2000
   -0.5463   -2.6842    0.0000 C   0  0  0  0  0  0  0  0  0  0  0  0
    0.1681   -3.0967    0.0000 N   0  0  0  0  0  0  0  0  0  0  0  0
    0.1681   -3.9217    0.0000 C   0  0  0  0  0  0  0  0  0  0  0  0
    0.8826   -2.6842    0.0000 C   0  0  0  0  0  0  0  0  0  0  0  0
    1.5971   -3.0967    0.0000 C   0  0  0  0  0  0  0  0  0  0  0  0
    2.3116   -2.6842    0.0000 C   0  0  0  0  0  0  0  0  0  0  0  0
    3.0260   -3.0967    0.0000 N   0  0  0  0  0  0  0  0  0  0  0  0
    3.7077   -2.6319    0.0000 C   0  0  0  0  0  0  0  0  0  0  0  0
    3.5241   -1.8276    0.0000 C   0  0  0  0  0  0  0  0  0  0  0  0
    4.1289   -1.2665    0.0000 C   0  0  0  0  0  0  0  0  0  0  0  0
    4.9172   -1.5096    0.0000 C   0  0  0  0  0  0  0  0  0  0  0  0
    5.1008   -2.3139    0.0000 C   0  0  0  0  0  0  0  0  0  0  0  0
    4.4960   -2.8751    0.0000 C   0  0  0  0  0  0  0  0  0  0  0  0
    4.7974   -3.6431    0.0000 C   0  0  0  0  0  0  0  0  0  0  0  0
    4.3849   -4.3575    0.0000 C   0  0  0  0  0  0  0  0  0  0  0  0
    3.5691   -4.4805    0.0000 C   0  0  0  0  0  0  0  0  0  0  0  0
    3.3856   -5.2848    0.0000 C   0  0  0  0  0  0  0  0  0  0  0  0
    2.5972   -5.5280    0.0000 C   0  0  0  0  0  0  0  0  0  0  0  0
    1.9925   -4.9668    0.0000 C   0  0  0  0  0  0  0  0  0  0  0  0
    2.1760   -4.1625    0.0000 C   0  0  0  0  0  0  0  0  0  0  0  0
    2.9644   -3.9193    0.0000 C   0  0  0  0  0  0  0  0  0  0  0  0
  1  2  1  0  0  0  0
  2  3  1  0  0  0  0
  2  4  1  0  0  0  0
  4  5  1  0  0  0  0
  5  6  1  0  0  0  0
  6  7  1  0  0  0  0
  7  8  1  0  0  0  0
  8  9  2  0  0  0  0
  9 10  1  0  0  0  0
 10 11  2  0  0  0  0
 11 12  1  0  0  0  0
 12 13  2  0  0  0  0
  8 13  1  0  0  0  0
 13 14  1  0  0  0  0
 14 15  1  0  0  0  0
 15 16  1  0  0  0  0
 16 17  2  0  0  0  0
 17 18  1  0  0  0  0
 18 19  2  0  0  0  0
 19 20  1  0  0  0  0
 20 21  2  0  0  0  0
 16 21  1  0  0  0  0
  7 21  1  0  0  0  0
M  END
>  <StandardizerResult>
Tautomerize


>  <CdId>
73

>  <Mol Weight>
280.42

>  <Formula>
C19H24N2

>  <Molecule ChEMBL ID>
CHEMBL11

>  <Molecule Name>
IMIPRAMINE

>  <Molecule Max Phase>
4

>  <Molecular Weight>
280.42

>  <#RO5 Violations>
0

>  <AlogP>
3.88

>  <Compound Key>
490

>  <Standard Type>
pKa_B1

>  <Standard Value>
9.17

>  <Comment>
'B1 Functional Group: Tertiary amine; Ionisation Formula: A0B1 (Functional Group: the part of the molecule the pKa refers to; Ionisation formula: AxBy where 'A' refers to acidic centers within the molecule that are appreciably ionised at a pH <= 11 and 'x' equals 0, 1 or 2; and 'B' refers to basic centers within the molecule that are appreciably ionised at a pH >= 2 and 'y' equals 0, 1, 2 or 3).'

>  <Potential Duplicate>
false

>  <Assay ChEMBL ID>
CHEMBL3301362

>  <Assay Description>
ASTRAZENECA: Most basic pKa value (pKa B1) determined by absorption and potentiometric titration using standard methodology from Sirius Analytical. Experimental range Bases: >= 2.

>  <Assay Type>
P

>  <BAO Format ID>
BAO_0000100

>  <BAO Label>
small-molecule physicochemical format

>  <Target ChEMBL ID>
CHEMBL2362975

>  <Target Name>
No relevant target

>  <Target Type>
NO TARGET

>  <Document ChEMBL ID>
CHEMBL3301361

>  <Source ID>
27

>  <Source Description>
AstraZeneca Deposited Data

>  <Strongest basic pKa>
9.2

>  <deltapKa>
-0.02697707190484344

>  <Strongest basic pKa_Taut>
9.2

>  <deltapKa_TAut>
-0.02697707190484344

$$$$

  Mrv1920 03272013312D          

 21 22  0  0  0  0            999 V2000
    1.4289    0.0000    0.0000 C   0  0  0  0  0  0  0  0  0  0  0  0
    2.1434   -0.4125    0.0000 O   0  0  0  0  0  0  0  0  0  0  0  0
    2.1434   -1.2375    0.0000 C   0  0  0  0  0  0  0  0  0  0  0  0
    2.8579   -1.6500    0.0000 C   0  0  0  0  0  0  0  0  0  0  0  0
    2.8579   -2.4750    0.0000 C   0  0  0  0  0  0  0  0  0  0  0  0
    3.5724   -2.8875    0.0000 C   0  0  0  0  0  0  0  0  0  0  0  0
    3.5724   -3.7125    0.0000 C   0  0  0  0  0  0  0  0  0  0  0  0
    4.2868   -4.1250    0.0000 C   0  0  0  0  0  0  0  0  0  0  0  0
    4.2868   -4.9500    0.0000 N   0  0  0  0  0  0  0  0  0  0  0  0
    3.5724   -5.3625    0.0000 C   0  0  0  0  0  0  0  0  0  0  0  0
    3.5724   -6.1875    0.0000 N   0  0  0  0  0  0  0  0  0  0  0  0
    2.8579   -4.9500    0.0000 N   0  0  0  0  0  0  0  0  0  0  0  0
    2.8579   -4.1250    0.0000 C   0  0  0  0  0  0  0  0  0  0  0  0
    2.1434   -3.7125    0.0000 N   0  0  0  0  0  0  0  0  0  0  0  0
    2.1434   -2.8875    0.0000 C   0  0  0  0  0  0  0  0  0  0  0  0
    1.4289   -2.4750    0.0000 C   0  0  0  0  0  0  0  0  0  0  0  0
    0.7145   -2.8875    0.0000 O   0  0  0  0  0  0  0  0  0  0  0  0
    0.0000   -2.4750    0.0000 C   0  0  0  0  0  0  0  0  0  0  0  0
    1.4289   -1.6500    0.0000 C   0  0  0  0  0  0  0  0  0  0  0  0
    0.7145   -1.2375    0.0000 O   0  0  0  0  0  0  0  0  0  0  0  0
    0.0000   -1.6500    0.0000 C   0  0  0  0  0  0  0  0  0  0  0  0
  1  2  1  0  0  0  0
  2  3  1  0  0  0  0
  3  4  2  0  0  0  0
  4  5  1  0  0  0  0
  5  6  1  0  0  0  0
  6  7  1  0  0  0  0
  7  8  2  0  0  0  0
  8  9  1  0  0  0  0
  9 10  2  0  0  0  0
 10 11  1  0  0  0  0
 10 12  1  0  0  0  0
 12 13  2  0  0  0  0
  7 13  1  0  0  0  0
 13 14  1  0  0  0  0
  5 15  2  0  0  0  0
 15 16  1  0  0  0  0
 16 17  1  0  0  0  0
 17 18  1  0  0  0  0
 16 19  2  0  0  0  0
  3 19  1  0  0  0  0
 19 20  1  0  0  0  0
 20 21  1  0  0  0  0
M  END
>  <StandardizerResult>
Tautomerize


>  <CdId>
182

>  <Mol Weight>
290.32

>  <Formula>
C14H18N4O3

>  <Molecule ChEMBL ID>
CHEMBL22

>  <Molecule Name>
TRIMETHOPRIM

>  <Molecule Max Phase>
4

>  <Molecular Weight>
290.32

>  <#RO5 Violations>
0

>  <AlogP>
1.26

>  <Compound Key>
57

>  <Standard Type>
pKa_B1

>  <Standard Value>
7.13

>  <Comment>
'B1 Functional Group: 2,4-Pyrimidinediamine; Ionisation Formula: A0B1 (Functional Group: the part of the molecule the pKa refers to; Ionisation formula: AxBy where 'A' refers to acidic centers within the molecule that are appreciably ionised at a pH <= 11 and 'x' equals 0, 1 or 2; and 'B' refers to basic centers within the molecule that are appreciably ionised at a pH >= 2 and 'y' equals 0, 1, 2 or 3).'

>  <Potential Duplicate>
false

>  <Assay ChEMBL ID>
CHEMBL3301362

>  <Assay Description>
ASTRAZENECA: Most basic pKa value (pKa B1) determined by absorption and potentiometric titration using standard methodology from Sirius Analytical. Experimental range Bases: >= 2.

>  <Assay Type>
P

>  <BAO Format ID>
BAO_0000100

>  <BAO Label>
small-molecule physicochemical format

>  <Target ChEMBL ID>
CHEMBL2362975

>  <Target Name>
No relevant target

>  <Target Type>
NO TARGET

>  <Document ChEMBL ID>
CHEMBL3301361

>  <Source ID>
27

>  <Source Description>
AstraZeneca Deposited Data

>  <Strongest basic pKa>
7.16

>  <deltapKa>
-0.026319189418074984

>  <Strongest basic pKa_Taut>
7.16

>  <deltapKa_TAut>
-0.026319189418074984

$$$$

  Mrv1920 03272013312D          

 27 31  0  0  0  0            999 V2000
    0.8518   -4.1335    0.0000 O   0  0  0  0  0  0  0  0  0  0  0  0
    1.5663   -3.7210    0.0000 C   0  0  0  0  0  0  0  0  0  0  0  0
    1.5662   -2.8960    0.0000 N   0  0  0  0  0  0  0  0  0  0  0  0
    0.8517   -2.4835    0.0000 C   0  0  0  0  0  0  0  0  0  0  0  0
    0.8517   -1.6585    0.0000 C   0  0  0  0  0  0  0  0  0  0  0  0
    0.1163   -2.0322    0.0000 C   0  0  0  0  0  0  0  0  0  0  0  0
    0.5657   -1.2419    0.0000 C   0  0  0  0  0  0  0  0  0  0  0  0
    0.5657   -0.4945    0.0000 C   0  0  0  0  0  0  0  0  0  0  0  0
    1.3012   -0.1208    0.0000 C   0  0  0  0  0  0  0  0  0  0  0  0
    2.0368   -0.4945    0.0000 C   0  0  0  0  0  0  0  0  0  0  0  0
    2.0368   -1.2419    0.0000 C   0  0  0  0  0  0  0  0  0  0  0  0
    1.3012   -1.6156    0.0000 C   0  0  0  0  0  0  0  0  0  0  0  0
    1.5873   -2.0322    0.0000 C   0  0  0  0  0  0  0  0  0  0  0  0
    0.8517   -0.9111    0.0000 C   0  0  0  0  0  0  0  0  0  0  0  0
    2.2808   -4.1334    0.0000 C   0  0  0  0  0  0  0  0  0  0  0  0
    2.9952   -3.7209    0.0000 C   0  0  0  0  0  0  0  0  0  0  0  0
    3.7097   -4.1333    0.0000 C   0  0  0  0  0  0  0  0  0  0  0  0
    3.7098   -4.9583    0.0000 N   0  0  0  0  0  0  0  0  0  0  0  0
    2.9953   -5.3709    0.0000 C   0  0  0  0  0  0  0  0  0  0  0  0
    2.9954   -6.1959    0.0000 N   0  0  0  0  0  0  0  0  0  0  0  0
    3.7099   -6.6083    0.0000 C   0  0  0  0  0  0  0  0  0  0  0  0
    3.7099   -7.4333    0.0000 C   0  0  0  0  0  0  0  0  0  0  0  0
    2.9955   -7.8459    0.0000 N   0  0  0  0  0  0  0  0  0  0  0  0
    2.2810   -7.4334    0.0000 C   0  0  0  0  0  0  0  0  0  0  0  0
    2.2809   -6.6084    0.0000 C   0  0  0  0  0  0  0  0  0  0  0  0
    2.2808   -4.9584    0.0000 C   0  0  0  0  0  0  0  0  0  0  0  0
    1.5664   -5.3710    0.0000 Cl  0  0  0  0  0  0  0  0  0  0  0  0
  1  2  2  0  0  0  0
  2  3  1  0  0  0  0
  3  4  1  0  0  0  0
  4  5  1  0  0  0  0
  5  6  1  0  0  0  0
  6  7  1  0  0  0  0
  9 14  1  0  0  0  0
  8  9  1  0  0  0  0
  9 10  1  0  0  0  0
  5 13  1  0  0  0  0
 11 12  1  0  0  0  0
  7 12  1  0  0  0  0
 11 13  1  0  0  0  0
 10 11  1  0  0  0  0
  7  8  1  0  0  0  0
  5 14  1  0  0  0  0
  2 15  1  0  0  0  0
 15 16  2  0  0  0  0
 16 17  1  0  0  0  0
 17 18  2  0  0  0  0
 18 19  1  0  0  0  0
 19 20  1  0  0  0  0
 20 21  1  0  0  0  0
 21 22  1  0  0  0  0
 22 23  1  0  0  0  0
 23 24  1  0  0  0  0
 24 25  1  0  0  0  0
 20 25  1  0  0  0  0
 19 26  2  0  0  0  0
 15 26  1  0  0  0  0
 26 27  1  0  0  0  0
M  END
>  <StandardizerResult>
Tautomerize


>  <CdId>
62

>  <Mol Weight>
388.94

>  <Formula>
C21H29ClN4O

>  <Molecule ChEMBL ID>
CHEMBL562698

>  <Molecule Max Phase>
0

>  <Molecular Weight>
388.94

>  <#RO5 Violations>
0

>  <AlogP>
3.09

>  <Compound Key>
1648

>  <Standard Type>
pKa_B1

>  <Standard Value>
8.7

>  <Comment>
'B1 Functional Group: Piperazine; Ionisation Formula: A0B1 (Functional Group: the part of the molecule the pKa refers to; Ionisation formula: AxBy where 'A' refers to acidic centers within the molecule that are appreciably ionised at a pH <= 11 and 'x' equals 0, 1 or 2; and 'B' refers to basic centers within the molecule that are appreciably ionised at a pH >= 2 and 'y' equals 0, 1, 2 or 3).'

>  <Potential Duplicate>
false

>  <Assay ChEMBL ID>
CHEMBL3301362

>  <Assay Description>
ASTRAZENECA: Most basic pKa value (pKa B1) determined by absorption and potentiometric titration using standard methodology from Sirius Analytical. Experimental range Bases: >= 2.

>  <Assay Type>
P

>  <BAO Format ID>
BAO_0000100

>  <BAO Label>
small-molecule physicochemical format

>  <Target ChEMBL ID>
CHEMBL2362975

>  <Target Name>
No relevant target

>  <Target Type>
NO TARGET

>  <Document ChEMBL ID>
CHEMBL3301361

>  <Source ID>
27

>  <Source Description>
AstraZeneca Deposited Data

>  <Strongest basic pKa>
8.72

>  <deltapKa>
-0.024674223965792663

>  <Strongest basic pKa_Taut>
8.72

>  <deltapKa_TAut>
-0.024674223965792663

$$$$

  Mrv1920 03272013312D          

 17 19  0  0  0  0            999 V2000
   -3.0587   -1.4124    0.0000 C   0  0  0  0  0  0  0  0  0  0  0  0
   -2.6462   -0.6979    0.0000 C   0  0  0  0  0  0  0  0  0  0  0  0
   -1.8212   -0.6979    0.0000 C   0  0  0  0  0  0  0  0  0  0  0  0
   -1.4087   -1.4124    0.0000 C   0  0  0  0  0  0  0  0  0  0  0  0
   -0.5837   -1.4124    0.0000 C   0  0  0  0  0  0  0  0  0  0  0  0
   -0.1712   -0.6979    0.0000 S   0  0  0  0  0  0  0  0  0  0  0  0
    0.6538   -0.6979    0.0000 C   0  0  0  0  0  0  0  0  0  0  0  0
    1.1387   -0.0305    0.0000 N   0  0  0  0  0  0  0  0  0  0  0  0
    1.9233   -0.2854    0.0000 C   0  0  0  0  0  0  0  0  0  0  0  0
    2.6378    0.1271    0.0000 C   0  0  0  0  0  0  0  0  0  0  0  0
    3.3523   -0.2854    0.0000 C   0  0  0  0  0  0  0  0  0  0  0  0
    3.3523   -1.1104    0.0000 C   0  0  0  0  0  0  0  0  0  0  0  0
    2.6378   -1.5229    0.0000 C   0  0  0  0  0  0  0  0  0  0  0  0
    1.9233   -1.1104    0.0000 C   0  0  0  0  0  0  0  0  0  0  0  0
    1.1387   -1.3654    0.0000 N   0  0  0  0  0  0  0  0  0  0  0  0
   -1.8212   -2.1269    0.0000 C   0  0  0  0  0  0  0  0  0  0  0  0
   -2.6462   -2.1269    0.0000 C   0  0  0  0  0  0  0  0  0  0  0  0
  1  2  2  0  0  0  0
  2  3  1  0  0  0  0
  3  4  2  0  0  0  0
  4  5  1  0  0  0  0
  5  6  1  0  0  0  0
  6  7  1  0  0  0  0
  7  8  2  0  0  0  0
  8  9  1  0  0  0  0
  9 10  2  0  0  0  0
 10 11  1  0  0  0  0
 11 12  2  0  0  0  0
 12 13  1  0  0  0  0
 13 14  2  0  0  0  0
  9 14  1  0  0  0  0
 14 15  1  0  0  0  0
  7 15  1  0  0  0  0
  4 16  1  0  0  0  0
 16 17  2  0  0  0  0
  1 17  1  0  0  0  0
M  END
>  <StandardizerResult>
Tautomerize


>  <CdId>
210

>  <Mol Weight>
240.32

>  <Formula>
C14H12N2S

>  <Molecule ChEMBL ID>
CHEMBL1533437

>  <Molecule Max Phase>
0

>  <Molecular Weight>
240.33

>  <#RO5 Violations>
0

>  <AlogP>
3.86

>  <Compound Key>
551

>  <Standard Type>
pKa_B1

>  <Standard Value>
4.2

>  <Comment>
'B1 Functional Group: 1H-benzimidazole, 2-(methylthio); Ionisation Formula: A0B1 (Functional Group: the part of the molecule the pKa refers to; Ionisation formula: AxBy where 'A' refers to acidic centers within the molecule that are appreciably ionised at a pH <= 11 and 'x' equals 0, 1 or 2; and 'B' refers to basic centers within the molecule that are appreciably ionised at a pH >= 2 and 'y' equals 0, 1, 2 or 3).'

>  <Potential Duplicate>
false

>  <Assay ChEMBL ID>
CHEMBL3301362

>  <Assay Description>
ASTRAZENECA: Most basic pKa value (pKa B1) determined by absorption and potentiometric titration using standard methodology from Sirius Analytical. Experimental range Bases: >= 2.

>  <Assay Type>
P

>  <BAO Format ID>
BAO_0000100

>  <BAO Label>
small-molecule physicochemical format

>  <Target ChEMBL ID>
CHEMBL2362975

>  <Target Name>
No relevant target

>  <Target Type>
NO TARGET

>  <Document ChEMBL ID>
CHEMBL3301361

>  <Source ID>
27

>  <Source Description>
AstraZeneca Deposited Data

>  <Strongest basic pKa>
4.22

>  <deltapKa>
-0.019921314889210784

>  <Strongest basic pKa_Taut>
4.22

>  <deltapKa_TAut>
-0.019921314889210784

$$$$

  Mrv1920 03272013312D          

 28 31  0  0  0  0            999 V2000
    2.9195   -1.0164    0.0000 O   0  0  0  0  0  0  0  0  0  0  0  0
    2.5070   -0.3020    0.0000 C   0  0  0  0  0  0  0  0  0  0  0  0
    1.6820   -0.3020    0.0000 C   0  0  0  0  0  0  0  0  0  0  0  0
    1.2695    0.4125    0.0000 C   0  0  0  0  0  0  0  0  0  0  0  0
    0.7846   -0.2549    0.0000 C   0  0  0  0  0  0  0  0  0  0  0  0
    0.0000    0.0000    0.0000 C   0  0  0  0  0  0  0  0  0  0  0  0
    0.0000    0.8250    0.0000 C   0  0  0  0  0  0  0  0  0  0  0  0
    0.7846    1.0799    0.0000 C   0  0  0  0  0  0  0  0  0  0  0  0
    1.6820    1.1270    0.0000 C   0  0  0  0  0  0  0  0  0  0  0  0
    2.5070    1.1270    0.0000 C   0  0  0  0  0  0  0  0  0  0  0  0
    2.9195    1.8414    0.0000 O   0  0  0  0  0  0  0  0  0  0  0  0
    2.9195    0.4125    0.0000 N   0  0  0  0  0  0  0  0  0  0  0  0
    3.7445    0.4125    0.0000 C   0  0  0  0  0  0  0  0  0  0  0  0
    4.1570    1.1270    0.0000 C   0  0  0  0  0  0  0  0  0  0  0  0
    4.9820    1.1270    0.0000 C   0  0  0  0  0  0  0  0  0  0  0  0
    5.3945    1.8414    0.0000 C   0  0  0  0  0  0  0  0  0  0  0  0
    6.2195    1.8414    0.0000 N   0  0  0  0  0  0  0  0  0  0  0  0
    6.6320    2.5559    0.0000 C   0  0  0  0  0  0  0  0  0  0  0  0
    7.4570    2.5559    0.0000 C   0  0  0  0  0  0  0  0  0  0  0  0
    7.8695    1.8414    0.0000 N   0  0  0  0  0  0  0  0  0  0  0  0
    8.6945    1.8414    0.0000 C   0  0  0  0  0  0  0  0  0  0  0  0
    9.1070    2.5559    0.0000 N   0  0  0  0  0  0  0  0  0  0  0  0
    9.9320    2.5559    0.0000 C   0  0  0  0  0  0  0  0  0  0  0  0
   10.3445    1.8414    0.0000 C   0  0  0  0  0  0  0  0  0  0  0  0
    9.9320    1.1270    0.0000 C   0  0  0  0  0  0  0  0  0  0  0  0
    9.1070    1.1270    0.0000 N   0  0  0  0  0  0  0  0  0  0  0  0
    7.4570    1.1270    0.0000 C   0  0  0  0  0  0  0  0  0  0  0  0
    6.6320    1.1270    0.0000 C   0  0  0  0  0  0  0  0  0  0  0  0
  1  2  2  0  0  0  0
  2  3  1  0  0  0  0
  3  4  1  0  0  0  0
  4  5  1  0  0  0  0
  5  6  1  0  0  0  0
  6  7  1  0  0  0  0
  7  8  1  0  0  0  0
  4  8  1  0  0  0  0
  4  9  1  0  0  0  0
  9 10  1  0  0  0  0
 10 11  2  0  0  0  0
 10 12  1  0  0  0  0
  2 12  1  0  0  0  0
 12 13  1  0  0  0  0
 13 14  1  0  0  0  0
 14 15  1  0  0  0  0
 15 16  1  0  0  0  0
 16 17  1  0  0  0  0
 17 18  1  0  0  0  0
 18 19  1  0  0  0  0
 19 20  1  0  0  0  0
 20 21  1  0  0  0  0
 21 22  2  0  0  0  0
 22 23  1  0  0  0  0
 23 24  2  0  0  0  0
 24 25  1  0  0  0  0
 25 26  2  0  0  0  0
 21 26  1  0  0  0  0
 20 27  1  0  0  0  0
 27 28  1  0  0  0  0
 17 28  1  0  0  0  0
M  END
>  <StandardizerResult>
Tautomerize


>  <CdId>
37

>  <Mol Weight>
385.51

>  <Formula>
C21H31N5O2

>  <Molecule ChEMBL ID>
CHEMBL49

>  <Molecule Name>
BUSPIRONE

>  <Molecule Max Phase>
4

>  <Molecular Weight>
385.51

>  <#RO5 Violations>
0

>  <AlogP>
2.09

>  <Compound Key>
295

>  <Standard Type>
pKa_B1

>  <Standard Value>
7.61

>  <Comment>
'B1 Functional Group: Piperazine; Ionisation Formula: A0B2 (Functional Group: the part of the molecule the pKa refers to; Ionisation formula: AxBy where 'A' refers to acidic centers within the molecule that are appreciably ionised at a pH <= 11 and 'x' equals 0, 1 or 2; and 'B' refers to basic centers within the molecule that are appreciably ionised at a pH >= 2 and 'y' equals 0, 1, 2 or 3).'

>  <Potential Duplicate>
false

>  <Assay ChEMBL ID>
CHEMBL3301362

>  <Assay Description>
ASTRAZENECA: Most basic pKa value (pKa B1) determined by absorption and potentiometric titration using standard methodology from Sirius Analytical. Experimental range Bases: >= 2.

>  <Assay Type>
P

>  <BAO Format ID>
BAO_0000100

>  <BAO Label>
small-molecule physicochemical format

>  <Target ChEMBL ID>
CHEMBL2362975

>  <Target Name>
No relevant target

>  <Target Type>
NO TARGET

>  <Document ChEMBL ID>
CHEMBL3301361

>  <Source ID>
27

>  <Source Description>
AstraZeneca Deposited Data

>  <Strongest basic pKa>
7.62

>  <deltapKa>
-0.010561412370417855

>  <Strongest basic pKa_Taut>
7.62

>  <deltapKa_TAut>
-0.010561412370417855

$$$$

  Mrv1920 03272013312D          

 18 19  0  0  0  0            999 V2000
    0.7145    1.2375    0.0000 C   0  0  0  0  0  0  0  0  0  0  0  0
    1.4289    0.8250    0.0000 C   0  0  0  0  0  0  0  0  0  0  0  0
    1.4289    0.0000    0.0000 O   0  0  0  0  0  0  0  0  0  0  0  0
    2.1434   -0.4125    0.0000 C   0  0  0  0  0  0  0  0  0  0  0  0
    2.8579    0.0000    0.0000 O   0  0  0  0  0  0  0  0  0  0  0  0
    2.1434   -1.2375    0.0000 N   0  0  0  0  0  0  0  0  0  0  0  0
    2.8579   -1.6500    0.0000 C   0  0  0  0  0  0  0  0  0  0  0  0
    2.8579   -2.4750    0.0000 C   0  0  0  0  0  0  0  0  0  0  0  0
    2.1434   -2.8875    0.0000 C   0  0  0  0  0  0  0  0  0  0  0  0
    2.1434   -3.7125    0.0000 N   0  0  0  0  0  0  0  0  0  0  0  0
    1.4289   -4.1250    0.0000 C   0  0  0  0  0  0  0  0  0  0  0  0
    1.4289   -4.9500    0.0000 C   0  0  0  0  0  0  0  0  0  0  0  0
    0.7145   -5.3625    0.0000 C   0  0  0  0  0  0  0  0  0  0  0  0
    0.0000   -4.9500    0.0000 C   0  0  0  0  0  0  0  0  0  0  0  0
    0.0000   -4.1250    0.0000 C   0  0  0  0  0  0  0  0  0  0  0  0
    0.7145   -3.7125    0.0000 N   0  0  0  0  0  0  0  0  0  0  0  0
    1.4289   -2.4750    0.0000 C   0  0  0  0  0  0  0  0  0  0  0  0
    1.4289   -1.6500    0.0000 C   0  0  0  0  0  0  0  0  0  0  0  0
  1  2  1  0  0  0  0
  2  3  1  0  0  0  0
  3  4  1  0  0  0  0
  4  5  2  0  0  0  0
  4  6  1  0  0  0  0
  6  7  1  0  0  0  0
  7  8  1  0  0  0  0
  8  9  1  0  0  0  0
  9 10  1  0  0  0  0
 10 11  1  0  0  0  0
 11 12  2  0  0  0  0
 12 13  1  0  0  0  0
 13 14  2  0  0  0  0
 14 15  1  0  0  0  0
 15 16  2  0  0  0  0
 11 16  1  0  0  0  0
  9 17  1  0  0  0  0
 17 18  1  0  0  0  0
  6 18  1  0  0  0  0
M  END
>  <StandardizerResult>
Tautomerize


>  <CdId>
10

>  <Mol Weight>
249.31

>  <Formula>
C13H19N3O2

>  <Molecule ChEMBL ID>
CHEMBL112247

>  <Molecule Max Phase>
0

>  <Molecular Weight>
249.31

>  <#RO5 Violations>
0

>  <AlogP>
2.11

>  <Compound Key>
1581

>  <Standard Type>
pKa_B1

>  <Standard Value>
6.6

>  <Comment>
'B1 Functional Group: 2-Pyridinamine; Ionisation Formula: A0B1 (Functional Group: the part of the molecule the pKa refers to; Ionisation formula: AxBy where 'A' refers to acidic centers within the molecule that are appreciably ionised at a pH <= 11 and 'x' equals 0, 1 or 2; and 'B' refers to basic centers within the molecule that are appreciably ionised at a pH >= 2 and 'y' equals 0, 1, 2 or 3).'

>  <Potential Duplicate>
false

>  <Assay ChEMBL ID>
CHEMBL3301362

>  <Assay Description>
ASTRAZENECA: Most basic pKa value (pKa B1) determined by absorption and potentiometric titration using standard methodology from Sirius Analytical. Experimental range Bases: >= 2.

>  <Assay Type>
P

>  <BAO Format ID>
BAO_0000100

>  <BAO Label>
small-molecule physicochemical format

>  <Target ChEMBL ID>
CHEMBL2362975

>  <Target Name>
No relevant target

>  <Target Type>
NO TARGET

>  <Document ChEMBL ID>
CHEMBL3301361

>  <Source ID>
27

>  <Source Description>
AstraZeneca Deposited Data

>  <Strongest basic pKa>
6.61

>  <deltapKa>
-0.006042904935330995

>  <Strongest basic pKa_Taut>
6.61

>  <deltapKa_TAut>
-0.006042904935330995

$$$$

  Mrv1920 03272013312D          

 29 32  0  0  0  0            999 V2000
    2.8579   -4.9500    0.0000 C   0  0  0  0  0  0  0  0  0  0  0  0
    2.8579   -4.1250    0.0000 N   0  0  0  0  0  0  0  0  0  0  0  0
    3.5724   -3.7125    0.0000 C   0  0  0  0  0  0  0  0  0  0  0  0
    2.1434   -3.7125    0.0000 C   0  0  0  0  0  0  0  0  0  0  0  0
    2.1434   -2.8875    0.0000 C   0  0  0  0  0  0  0  0  0  0  0  0
    1.4289   -2.4750    0.0000 N   0  0  0  0  0  0  0  0  0  0  0  0
    1.4289   -1.6500    0.0000 C   0  0  0  0  0  0  0  0  0  0  0  0
    0.7145   -1.2375    0.0000 C   0  0  0  0  0  0  0  0  0  0  0  0
    0.7145   -0.4125    0.0000 C   0  0  0  0  0  0  0  0  0  0  0  0
    0.0000    0.0000    0.0000 C   0  0  0  0  0  0  0  0  0  0  0  0
   -0.7145   -0.4125    0.0000 C   0  0  0  0  0  0  0  0  0  0  0  0
   -1.4289    0.0000    0.0000 C   0  0  0  0  0  0  0  0  0  0  0  0
   -1.4289    0.8250    0.0000 C   0  0  0  0  0  0  0  0  0  0  0  0
   -2.1434    1.2375    0.0000 N   0  0  0  0  0  0  0  0  0  0  0  0
   -2.8579    0.8250    0.0000 C   0  0  0  0  0  0  0  0  0  0  0  0
   -3.5724    1.2375    0.0000 C   0  0  0  0  0  0  0  0  0  0  0  0
   -3.5724    2.0625    0.0000 N   0  0  0  0  0  0  0  0  0  0  0  0
   -4.2868    2.4750    0.0000 C   0  0  0  0  0  0  0  0  0  0  0  0
   -2.8579    2.4750    0.0000 C   0  0  0  0  0  0  0  0  0  0  0  0
   -2.1434    2.0625    0.0000 C   0  0  0  0  0  0  0  0  0  0  0  0
   -0.7145    1.2375    0.0000 C   0  0  0  0  0  0  0  0  0  0  0  0
    0.0000    0.8250    0.0000 C   0  0  0  0  0  0  0  0  0  0  0  0
    1.4289    0.0000    0.0000 N   0  0  0  0  0  0  0  0  0  0  0  0
    2.1434   -0.4125    0.0000 C   0  0  0  0  0  0  0  0  0  0  0  0
    2.8579    0.0000    0.0000 C   0  0  0  0  0  0  0  0  0  0  0  0
    3.5724   -0.4125    0.0000 C   0  0  0  0  0  0  0  0  0  0  0  0
    3.5724   -1.2375    0.0000 C   0  0  0  0  0  0  0  0  0  0  0  0
    2.8579   -1.6500    0.0000 C   0  0  0  0  0  0  0  0  0  0  0  0
    2.1434   -1.2375    0.0000 C   0  0  0  0  0  0  0  0  0  0  0  0
  1  2  1  0  0  0  0
  2  3  1  0  0  0  0
  2  4  1  0  0  0  0
  4  5  1  0  0  0  0
  5  6  1  0  0  0  0
  6  7  1  0  0  0  0
  7  8  2  0  0  0  0
  8  9  1  0  0  0  0
  9 10  1  0  0  0  0
 10 11  2  0  0  0  0
 11 12  1  0  0  0  0
 12 13  2  0  0  0  0
 13 14  1  0  0  0  0
 14 15  1  0  0  0  0
 15 16  1  0  0  0  0
 16 17  1  0  0  0  0
 17 18  1  0  0  0  0
 17 19  1  0  0  0  0
 19 20  1  0  0  0  0
 14 20  1  0  0  0  0
 13 21  1  0  0  0  0
 21 22  2  0  0  0  0
 10 22  1  0  0  0  0
  9 23  2  0  0  0  0
 23 24  1  0  0  0  0
 24 25  2  0  0  0  0
 25 26  1  0  0  0  0
 26 27  2  0  0  0  0
 27 28  1  0  0  0  0
 28 29  2  0  0  0  0
  7 29  1  0  0  0  0
 24 29  1  0  0  0  0
M  END
>  <StandardizerResult>
Tautomerize


>  <CdId>
58

>  <Mol Weight>
389.55

>  <Formula>
C24H31N5

>  <Molecule ChEMBL ID>
CHEMBL280148

>  <Molecule Max Phase>
0

>  <Molecular Weight>
389.55

>  <#RO5 Violations>
0

>  <AlogP>
3.63

>  <Compound Key>
3206

>  <Standard Type>
pKa_B1

>  <Standard Value>
8.94

>  <Comment>
'B1 Functional Group: Tertiary amine; Ionisation Formula: A0B3 (Functional Group: the part of the molecule the pKa refers to; Ionisation formula: AxBy where 'A' refers to acidic centers within the molecule that are appreciably ionised at a pH <= 11 and 'x' equals 0, 1 or 2; and 'B' refers to basic centers within the molecule that are appreciably ionised at a pH >= 2 and 'y' equals 0, 1, 2 or 3).'

>  <Potential Duplicate>
false

>  <Assay ChEMBL ID>
CHEMBL3301362

>  <Assay Description>
ASTRAZENECA: Most basic pKa value (pKa B1) determined by absorption and potentiometric titration using standard methodology from Sirius Analytical. Experimental range Bases: >= 2.

>  <Assay Type>
P

>  <BAO Format ID>
BAO_0000100

>  <BAO Label>
small-molecule physicochemical format

>  <Target ChEMBL ID>
CHEMBL2362975

>  <Target Name>
No relevant target

>  <Target Type>
NO TARGET

>  <Document ChEMBL ID>
CHEMBL3301361

>  <Source ID>
27

>  <Source Description>
AstraZeneca Deposited Data

>  <Strongest basic pKa>
8.94

>  <deltapKa>
-0.004490992412625516

>  <Strongest basic pKa_Taut>
8.94

>  <deltapKa_TAut>
-0.004490992412625516

$$$$

  Mrv1920 03272013312D          

 29 33  0  0  1  0            999 V2000
    0.7145   -2.8875    0.0000 C   0  0  0  0  0  0  0  0  0  0  0  0
    1.4289   -2.4750    0.0000 O   0  0  0  0  0  0  0  0  0  0  0  0
    1.4289   -1.6500    0.0000 C   0  0  0  0  0  0  0  0  0  0  0  0
    0.7145   -1.2375    0.0000 C   0  0  0  0  0  0  0  0  0  0  0  0
    0.0000   -1.6500    0.0000 N   0  0  0  0  0  0  0  0  0  0  0  0
   -0.0862   -2.4705    0.0000 C   0  0  0  0  0  0  0  0  0  0  0  0
   -0.8932   -2.6420    0.0000 C   0  0  2  0  0  0  0  0  0  0  0  0
   -1.3057   -3.3565    0.0000 C   0  0  0  0  0  0  0  0  0  0  0  0
   -2.1307   -3.3565    0.0000 C   0  0  0  0  0  0  0  0  0  0  0  0
   -2.5432   -2.6420    0.0000 C   0  0  0  0  0  0  0  0  0  0  0  0
   -2.1307   -1.9275    0.0000 N   0  0  0  0  0  0  0  0  0  0  0  0
   -1.3057   -1.9275    0.0000 C   0  0  2  0  0  0  0  0  0  0  0  0
   -0.7537   -1.3144    0.0000 C   0  0  0  0  0  0  0  0  0  0  0  0
    0.7145   -0.4125    0.0000 C   0  0  0  0  0  0  0  0  0  0  0  0
    0.0000    0.0000    0.0000 F   0  0  0  0  0  0  0  0  0  0  0  0
    1.4289    0.0000    0.0000 C   0  0  0  0  0  0  0  0  0  0  0  0
    2.1434   -0.4125    0.0000 C   0  0  0  0  0  0  0  0  0  0  0  0
    2.8579    0.0000    0.0000 C   0  0  0  0  0  0  0  0  0  0  0  0
    2.8579    0.8250    0.0000 O   0  0  0  0  0  0  0  0  0  0  0  0
    3.5724   -0.4125    0.0000 C   0  0  0  0  0  0  0  0  0  0  0  0
    4.2868    0.0000    0.0000 C   0  0  0  0  0  0  0  0  0  0  0  0
    4.2868    0.8250    0.0000 O   0  0  0  0  0  0  0  0  0  0  0  0
    5.0013   -0.4125    0.0000 O   0  0  0  0  0  0  0  0  0  0  0  0
    3.5724   -1.2375    0.0000 C   0  0  0  0  0  0  0  0  0  0  0  0
    2.8579   -1.6500    0.0000 N   0  0  0  0  0  0  0  0  0  0  0  0
    2.8579   -2.4750    0.0000 C   0  0  0  0  0  0  0  0  0  0  0  0
    3.2704   -3.1895    0.0000 C   0  0  0  0  0  0  0  0  0  0  0  0
    2.4454   -3.1895    0.0000 C   0  0  0  0  0  0  0  0  0  0  0  0
    2.1434   -1.2375    0.0000 C   0  0  0  0  0  0  0  0  0  0  0  0
  1  2  1  0  0  0  0
  2  3  1  0  0  0  0
  3  4  1  0  0  0  0
  4  5  1  0  0  0  0
  5  6  1  0  0  0  0
  7  6  1  6  0  0  0
  7  8  1  0  0  0  0
  8  9  1  0  0  0  0
  9 10  1  0  0  0  0
 10 11  1  0  0  0  0
 12 11  1  0  0  0  0
  7 12  1  0  0  0  0
 12 13  1  6  0  0  0
  5 13  1  0  0  0  0
  4 14  2  0  0  0  0
 14 15  1  0  0  0  0
 14 16  1  0  0  0  0
 16 17  2  0  0  0  0
 17 18  1  0  0  0  0
 18 19  2  0  0  0  0
 18 20  1  0  0  0  0
 20 21  1  0  0  0  0
 21 22  2  0  0  0  0
 21 23  1  0  0  0  0
 20 24  2  0  0  0  0
 24 25  1  0  0  0  0
 25 26  1  0  0  0  0
 26 27  1  0  0  0  0
 27 28  1  0  0  0  0
 26 28  1  0  0  0  0
 25 29  1  0  0  0  0
  3 29  2  0  0  0  0
 17 29  1  0  0  0  0
M  END
>  <StandardizerResult>
Tautomerize


>  <CdId>
137

>  <Mol Weight>
401.44

>  <Formula>
C21H24FN3O4

>  <Molecule ChEMBL ID>
CHEMBL32

>  <Molecule Name>
MOXIFLOXACIN

>  <Molecule Max Phase>
4

>  <Molecular Weight>
401.44

>  <#RO5 Violations>
0

>  <AlogP>
2.37

>  <Compound Key>
2737

>  <Standard Type>
pKa_B1

>  <Standard Value>
9.51

>  <Comment>
'B1 Functional Group: Piperidine; Ionisation Formula: A1B2 (Functional Group: the part of the molecule the pKa refers to; Ionisation formula: AxBy where 'A' refers to acidic centers within the molecule that are appreciably ionised at a pH <= 11 and 'x' equals 0, 1 or 2; and 'B' refers to basic centers within the molecule that are appreciably ionised at a pH >= 2 and 'y' equals 0, 1, 2 or 3).'

>  <Potential Duplicate>
false

>  <Assay ChEMBL ID>
CHEMBL3301362

>  <Assay Description>
ASTRAZENECA: Most basic pKa value (pKa B1) determined by absorption and potentiometric titration using standard methodology from Sirius Analytical. Experimental range Bases: >= 2.

>  <Assay Type>
P

>  <BAO Format ID>
BAO_0000100

>  <BAO Label>
small-molecule physicochemical format

>  <Target ChEMBL ID>
CHEMBL2362975

>  <Target Name>
No relevant target

>  <Target Type>
NO TARGET

>  <Document ChEMBL ID>
CHEMBL3301361

>  <Source ID>
27

>  <Source Description>
AstraZeneca Deposited Data

>  <Strongest basic pKa>
9.51

>  <deltapKa>
-0.0013949370726802357

>  <Strongest basic pKa_Taut>
9.51

>  <deltapKa_TAut>
-0.0013949370726802357

$$$$

  Mrv1920 03272013312D          

 17 17  0  0  0  0            999 V2000
    3.5724   -5.3625    0.0000 C   0  0  0  0  0  0  0  0  0  0  0  0
    4.2868   -4.9500    0.0000 C   0  0  0  0  0  0  0  0  0  0  0  0
    4.2868   -4.1250    0.0000 C   0  0  0  0  0  0  0  0  0  0  0  0
    3.5724   -3.7125    0.0000 C   0  0  0  0  0  0  0  0  0  0  0  0
    2.8579   -4.1250    0.0000 C   0  0  0  0  0  0  0  0  0  0  0  0
    2.1434   -3.7125    0.0000 N   0  0  0  0  0  0  0  0  0  0  0  0
    1.4289   -4.1250    0.0000 C   0  0  0  0  0  0  0  0  0  0  0  0
    5.0013   -3.7125    0.0000 O   0  0  0  0  0  0  0  0  0  0  0  0
    5.7158   -4.1250    0.0000 C   0  0  0  0  0  0  0  0  0  0  0  0
    6.4302   -3.7125    0.0000 C   0  0  0  0  0  0  0  0  0  0  0  0
    7.1447   -4.1250    0.0000 C   0  0  0  0  0  0  0  0  0  0  0  0
    7.8592   -3.7125    0.0000 Cl  0  0  0  0  0  0  0  0  0  0  0  0
    7.1447   -4.9500    0.0000 C   0  0  0  0  0  0  0  0  0  0  0  0
    6.4302   -5.3625    0.0000 C   0  0  0  0  0  0  0  0  0  0  0  0
    5.7158   -4.9500    0.0000 C   0  0  0  0  0  0  0  0  0  0  0  0
    5.0013   -5.3625    0.0000 C   0  0  0  0  0  0  0  0  0  0  0  0
    4.2868   -5.7750    0.0000 N   0  0  0  0  0  0  0  0  0  0  0  0
  1  2  1  0  0  0  0
  2  3  1  0  0  0  0
  3  4  1  0  0  0  0
  4  5  1  0  0  0  0
  5  6  1  0  0  0  0
  6  7  1  0  0  0  0
  3  8  1  0  0  0  0
  8  9  1  0  0  0  0
  9 10  2  0  0  0  0
 10 11  1  0  0  0  0
 11 12  1  0  0  0  0
 11 13  2  0  0  0  0
 13 14  1  0  0  0  0
 14 15  2  0  0  0  0
  9 15  1  0  0  0  0
 15 16  1  0  0  0  0
 16 17  3  0  0  0  0
M  END
>  <StandardizerResult>
Tautomerize


>  <CdId>
156

>  <Mol Weight>
252.74

>  <Formula>
C13H17ClN2O

>  <Molecule ChEMBL ID>
CHEMBL1789148

>  <Molecule Max Phase>
0

>  <Molecular Weight>
252.75

>  <#RO5 Violations>
0

>  <AlogP>
2.98

>  <Compound Key>
2318

>  <Standard Type>
pKa_B1

>  <Standard Value>
10.1

>  <Comment>
'B1 Functional Group: Secondary amine; Ionisation Formula: A0B1 (Functional Group: the part of the molecule the pKa refers to; Ionisation formula: AxBy where 'A' refers to acidic centers within the molecule that are appreciably ionised at a pH <= 11 and 'x' equals 0, 1 or 2; and 'B' refers to basic centers within the molecule that are appreciably ionised at a pH >= 2 and 'y' equals 0, 1, 2 or 3).'

>  <Potential Duplicate>
false

>  <Assay ChEMBL ID>
CHEMBL3301362

>  <Assay Description>
ASTRAZENECA: Most basic pKa value (pKa B1) determined by absorption and potentiometric titration using standard methodology from Sirius Analytical. Experimental range Bases: >= 2.

>  <Assay Type>
P

>  <BAO Format ID>
BAO_0000100

>  <BAO Label>
small-molecule physicochemical format

>  <Target ChEMBL ID>
CHEMBL2362975

>  <Target Name>
No relevant target

>  <Target Type>
NO TARGET

>  <Document ChEMBL ID>
CHEMBL3301361

>  <Source ID>
27

>  <Source Description>
AstraZeneca Deposited Data

>  <Strongest basic pKa>
10.1

>  <deltapKa>
-0.0012020144004143418

>  <Strongest basic pKa_Taut>
10.1

>  <deltapKa_TAut>
-0.0012020144004143418

$$$$

  Mrv1920 03272013312D          

 32 35  0  0  0  0            999 V2000
    5.0013    2.0625    0.0000 O   0  0  0  0  0  0  0  0  0  0  0  0
    5.7158    2.4750    0.0000 C   0  0  0  0  0  0  0  0  0  0  0  0
    5.7158    3.3000    0.0000 O   0  0  0  0  0  0  0  0  0  0  0  0
    6.4302    2.0625    0.0000 C   0  0  0  0  0  0  0  0  0  0  0  0
    6.4302    1.2375    0.0000 C   0  0  0  0  0  0  0  0  0  0  0  0
    7.1447    0.8250    0.0000 C   0  0  0  0  0  0  0  0  0  0  0  0
    7.1447    0.0000    0.0000 C   0  0  0  0  0  0  0  0  0  0  0  0
    6.4302   -0.4125    0.0000 C   0  0  0  0  0  0  0  0  0  0  0  0
    5.7158    0.0000    0.0000 C   0  0  0  0  0  0  0  0  0  0  0  0
    5.7158    0.8250    0.0000 C   0  0  0  0  0  0  0  0  0  0  0  0
    7.1447    2.4750    0.0000 N   0  0  0  0  0  0  0  0  0  0  0  0
    7.1447    3.3000    0.0000 C   0  0  0  0  0  0  0  0  0  0  0  0
    7.8592    3.7125    0.0000 C   0  0  0  0  0  0  0  0  0  0  0  0
    8.5737    3.3000    0.0000 C   0  0  0  0  0  0  0  0  0  0  0  0
    9.2881    3.7125    0.0000 C   0  0  0  0  0  0  0  0  0  0  0  0
   10.0026    3.3000    0.0000 N   0  0  0  0  0  0  0  0  0  0  0  0
   10.7171    3.7125    0.0000 C   0  0  0  0  0  0  0  0  0  0  0  0
   11.4315    3.3000    0.0000 C   0  0  0  0  0  0  0  0  0  0  0  0
   11.4315    2.4750    0.0000 C   0  0  0  0  0  0  0  0  0  0  0  0
   12.1460    2.0625    0.0000 O   0  0  0  0  0  0  0  0  0  0  0  0
   12.1460    1.2375    0.0000 C   0  0  0  0  0  0  0  0  0  0  0  0
   12.8605    0.8250    0.0000 C   0  0  0  0  0  0  0  0  0  0  0  0
   12.8605    0.0000    0.0000 C   0  0  0  0  0  0  0  0  0  0  0  0
   12.1460   -0.4125    0.0000 C   0  0  0  0  0  0  0  0  0  0  0  0
   12.1460   -1.2375    0.0000 Cl  0  0  0  0  0  0  0  0  0  0  0  0
   11.4315    0.0000    0.0000 C   0  0  0  0  0  0  0  0  0  0  0  0
   10.7171   -0.4125    0.0000 Cl  0  0  0  0  0  0  0  0  0  0  0  0
   11.4315    0.8250    0.0000 C   0  0  0  0  0  0  0  0  0  0  0  0
   10.7171    2.0625    0.0000 C   0  0  0  0  0  0  0  0  0  0  0  0
   10.0026    2.4750    0.0000 C   0  0  0  0  0  0  0  0  0  0  0  0
    8.5737    2.4750    0.0000 C   0  0  0  0  0  0  0  0  0  0  0  0
    7.8592    2.0625    0.0000 C   0  0  0  0  0  0  0  0  0  0  0  0
  1  2  2  0  0  0  0
  2  3  1  0  0  0  0
  2  4  1  0  0  0  0
  4  5  1  0  0  0  0
  5  6  2  0  0  0  0
  6  7  1  0  0  0  0
  7  8  2  0  0  0  0
  8  9  1  0  0  0  0
  9 10  2  0  0  0  0
  5 10  1  0  0  0  0
  4 11  1  0  0  0  0
 11 12  1  0  0  0  0
 12 13  1  0  0  0  0
 13 14  1  0  0  0  0
 14 15  1  0  0  0  0
 15 16  1  0  0  0  0
 16 17  1  0  0  0  0
 17 18  1  0  0  0  0
 18 19  1  0  0  0  0
 19 20  1  0  0  0  0
 20 21  1  0  0  0  0
 21 22  2  0  0  0  0
 22 23  1  0  0  0  0
 23 24  2  0  0  0  0
 24 25  1  0  0  0  0
 24 26  1  0  0  0  0
 26 27  1  0  0  0  0
 26 28  2  0  0  0  0
 21 28  1  0  0  0  0
 19 29  1  0  0  0  0
 29 30  1  0  0  0  0
 16 30  1  0  0  0  0
 14 31  1  0  0  0  0
 31 32  1  0  0  0  0
 11 32  1  0  0  0  0
M  END
>  <StandardizerResult>
Tautomerize


>  <CdId>
138

>  <Mol Weight>
477.43

>  <Formula>
C25H30Cl2N2O3

>  <Molecule ChEMBL ID>
CHEMBL2158819

>  <Molecule Max Phase>
0

>  <Molecular Weight>
477.43

>  <#RO5 Violations>
1

>  <AlogP>
5.37

>  <Compound Key>
2091

>  <Standard Type>
pKa_B1

>  <Standard Value>
9.6

>  <Comment>
'B1 Functional Group: Piperidine; Ionisation Formula: A1B2 (Functional Group: the part of the molecule the pKa refers to; Ionisation formula: AxBy where 'A' refers to acidic centers within the molecule that are appreciably ionised at a pH <= 11 and 'x' equals 0, 1 or 2; and 'B' refers to basic centers within the molecule that are appreciably ionised at a pH >= 2 and 'y' equals 0, 1, 2 or 3).'

>  <Potential Duplicate>
false

>  <Assay ChEMBL ID>
CHEMBL3301362

>  <Assay Description>
ASTRAZENECA: Most basic pKa value (pKa B1) determined by absorption and potentiometric titration using standard methodology from Sirius Analytical. Experimental range Bases: >= 2.

>  <Assay Type>
P

>  <BAO Format ID>
BAO_0000100

>  <BAO Label>
small-molecule physicochemical format

>  <Target ChEMBL ID>
CHEMBL2362975

>  <Target Name>
No relevant target

>  <Target Type>
NO TARGET

>  <Document ChEMBL ID>
CHEMBL3301361

>  <Source ID>
27

>  <Source Description>
AstraZeneca Deposited Data

>  <Strongest basic pKa>
9.58

>  <deltapKa>
0.015153257117846763

>  <Strongest basic pKa_Taut>
9.58

>  <deltapKa_TAut>
0.015153257117846763

$$$$

  Mrv1920 03272013312D          

 19 19  0  0  0  0            999 V2000
    2.1434   -4.5375    0.0000 C   0  0  0  0  0  0  0  0  0  0  0  0
    2.1434   -3.7125    0.0000 C   0  0  0  0  0  0  0  0  0  0  0  0
    1.4289   -3.3000    0.0000 C   0  0  0  0  0  0  0  0  0  0  0  0
    1.4289   -2.4750    0.0000 O   0  0  0  0  0  0  0  0  0  0  0  0
    0.7145   -2.0625    0.0000 C   0  0  0  0  0  0  0  0  0  0  0  0
    0.0000   -2.4750    0.0000 C   0  0  0  0  0  0  0  0  0  0  0  0
   -0.7145   -2.0625    0.0000 C   0  0  0  0  0  0  0  0  0  0  0  0
   -0.7145   -1.2375    0.0000 C   0  0  0  0  0  0  0  0  0  0  0  0
    0.0000   -0.8250    0.0000 C   0  0  0  0  0  0  0  0  0  0  0  0
    0.7145   -1.2375    0.0000 C   0  0  0  0  0  0  0  0  0  0  0  0
    1.4289   -0.8250    0.0000 O   0  0  0  0  0  0  0  0  0  0  0  0
    2.1434   -1.2375    0.0000 C   0  0  0  0  0  0  0  0  0  0  0  0
    2.8579   -0.8250    0.0000 C   0  0  0  0  0  0  0  0  0  0  0  0
    2.8579    0.0000    0.0000 O   0  0  0  0  0  0  0  0  0  0  0  0
    3.5724   -1.2375    0.0000 C   0  0  0  0  0  0  0  0  0  0  0  0
    4.2868   -0.8250    0.0000 N   0  0  0  0  0  0  0  0  0  0  0  0
    5.0013   -1.2375    0.0000 C   0  0  0  0  0  0  0  0  0  0  0  0
    5.7158   -0.8250    0.0000 C   0  0  0  0  0  0  0  0  0  0  0  0
    5.0013   -2.0625    0.0000 C   0  0  0  0  0  0  0  0  0  0  0  0
  1  2  2  0  0  0  0
  2  3  1  0  0  0  0
  3  4  1  0  0  0  0
  4  5  1  0  0  0  0
  5  6  2  0  0  0  0
  6  7  1  0  0  0  0
  7  8  2  0  0  0  0
  8  9  1  0  0  0  0
  9 10  2  0  0  0  0
  5 10  1  0  0  0  0
 10 11  1  0  0  0  0
 11 12  1  0  0  0  0
 12 13  1  0  0  0  0
 13 14  1  0  0  0  0
 13 15  1  0  0  0  0
 15 16  1  0  0  0  0
 16 17  1  0  0  0  0
 17 18  1  0  0  0  0
 17 19  1  0  0  0  0
M  END
>  <StandardizerResult>
Tautomerize


>  <CdId>
241

>  <Mol Weight>
265.35

>  <Formula>
C15H23NO3

>  <Molecule ChEMBL ID>
CHEMBL546

>  <Molecule Name>
OXPRENOLOL

>  <Molecule Max Phase>
4

>  <Molecular Weight>
265.35

>  <#RO5 Violations>
0

>  <AlogP>
1.99

>  <Compound Key>
160

>  <Standard Type>
pKa_B1

>  <Standard Value>
9.69

>  <Comment>
'B1 Functional Group: Secondary amine; Ionisation Formula: A0B1 (Functional Group: the part of the molecule the pKa refers to; Ionisation formula: AxBy where 'A' refers to acidic centers within the molecule that are appreciably ionised at a pH <= 11 and 'x' equals 0, 1 or 2; and 'B' refers to basic centers within the molecule that are appreciably ionised at a pH >= 2 and 'y' equals 0, 1, 2 or 3).'

>  <Potential Duplicate>
false

>  <Assay ChEMBL ID>
CHEMBL3301362

>  <Assay Description>
ASTRAZENECA: Most basic pKa value (pKa B1) determined by absorption and potentiometric titration using standard methodology from Sirius Analytical. Experimental range Bases: >= 2.

>  <Assay Type>
P

>  <BAO Format ID>
BAO_0000100

>  <BAO Label>
small-molecule physicochemical format

>  <Target ChEMBL ID>
CHEMBL2362975

>  <Target Name>
No relevant target

>  <Target Type>
NO TARGET

>  <Document ChEMBL ID>
CHEMBL3301361

>  <Source ID>
27

>  <Source Description>
AstraZeneca Deposited Data

>  <Strongest basic pKa>
9.67

>  <deltapKa>
0.02383429601557907

>  <Strongest basic pKa_Taut>
9.67

>  <deltapKa_TAut>
0.02383429601557907

$$$$

  Mrv1920 03272013312D          

 16 18  0  0  0  0            999 V2000
    4.0668    2.3479    0.0000 Cl  0  0  0  0  0  0  0  0  0  0  0  0
    3.3523    1.9354    0.0000 C   0  0  0  0  0  0  0  0  0  0  0  0
    3.3523    1.1104    0.0000 C   0  0  0  0  0  0  0  0  0  0  0  0
    2.6378    0.6979    0.0000 C   0  0  0  0  0  0  0  0  0  0  0  0
    1.9233    1.1104    0.0000 C   0  0  0  0  0  0  0  0  0  0  0  0
    1.1387    0.8555    0.0000 N   0  0  0  0  0  0  0  0  0  0  0  0
    0.6538    1.5229    0.0000 S   0  0  0  0  0  0  0  0  0  0  0  0
    1.1387    2.1904    0.0000 N   0  0  0  0  0  0  0  0  0  0  0  0
    1.9233    1.9354    0.0000 C   0  0  0  0  0  0  0  0  0  0  0  0
    2.6378    2.3479    0.0000 C   0  0  0  0  0  0  0  0  0  0  0  0
    2.6378    3.1729    0.0000 N   0  0  0  0  0  0  0  0  0  0  0  0
    3.3523    3.5854    0.0000 C   0  0  0  0  0  0  0  0  0  0  0  0
    3.4385    4.4059    0.0000 N   0  0  0  0  0  0  0  0  0  0  0  0
    4.2455    4.5775    0.0000 C   0  0  0  0  0  0  0  0  0  0  0  0
    4.6580    3.8630    0.0000 C   0  0  0  0  0  0  0  0  0  0  0  0
    4.1060    3.2499    0.0000 N   0  0  0  0  0  0  0  0  0  0  0  0
  1  2  1  0  0  0  0
  2  3  1  0  0  0  0
  3  4  2  0  0  0  0
  4  5  1  0  0  0  0
  5  6  2  0  0  0  0
  6  7  1  0  0  0  0
  7  8  1  0  0  0  0
  8  9  2  0  0  0  0
  5  9  1  0  0  0  0
  9 10  1  0  0  0  0
  2 10  2  0  0  0  0
 10 11  1  0  0  0  0
 11 12  1  0  0  0  0
 12 13  2  0  0  0  0
 13 14  1  0  0  0  0
 14 15  1  0  0  0  0
 15 16  1  0  0  0  0
 12 16  1  0  0  0  0
M  END
>  <StandardizerResult>
Tautomerize


>  <CdId>
106

>  <Mol Weight>
253.71

>  <Formula>
C9H8ClN5S

>  <Molecule ChEMBL ID>
CHEMBL1079

>  <Molecule Name>
TIZANIDINE

>  <Molecule Max Phase>
4

>  <Molecular Weight>
253.72

>  <#RO5 Violations>
0

>  <AlogP>
1.72

>  <Compound Key>
1693

>  <Standard Type>
pKa_B1

>  <Standard Value>
7.52

>  <Comment>
'B1 Functional Group: 1H-imidazole, 4,5-dihydro-; Ionisation Formula: A0B1 (Functional Group: the part of the molecule the pKa refers to; Ionisation formula: AxBy where 'A' refers to acidic centers within the molecule that are appreciably ionised at a pH <= 11 and 'x' equals 0, 1 or 2; and 'B' refers to basic centers within the molecule that are appreciably ionised at a pH >= 2 and 'y' equals 0, 1, 2 or 3).'

>  <Potential Duplicate>
false

>  <Assay ChEMBL ID>
CHEMBL3301362

>  <Assay Description>
ASTRAZENECA: Most basic pKa value (pKa B1) determined by absorption and potentiometric titration using standard methodology from Sirius Analytical. Experimental range Bases: >= 2.

>  <Assay Type>
P

>  <BAO Format ID>
BAO_0000100

>  <BAO Label>
small-molecule physicochemical format

>  <Target ChEMBL ID>
CHEMBL2362975

>  <Target Name>
No relevant target

>  <Target Type>
NO TARGET

>  <Document ChEMBL ID>
CHEMBL3301361

>  <Source ID>
27

>  <Source Description>
AstraZeneca Deposited Data

>  <Strongest basic pKa>
7.49

>  <deltapKa>
0.02533922147959089

>  <Strongest basic pKa_Taut>
7.49

>  <deltapKa_TAut>
0.02533922147959089

$$$$

  Mrv1920 03272013312D          

 21 22  0  0  0  0            999 V2000
   -2.1434   -2.8875    0.0000 C   0  0  0  0  0  0  0  0  0  0  0  0
   -1.4289   -2.4750    0.0000 C   0  0  0  0  0  0  0  0  0  0  0  0
   -1.4289   -1.6500    0.0000 C   0  0  0  0  0  0  0  0  0  0  0  0
   -0.7145   -1.2375    0.0000 C   0  0  0  0  0  0  0  0  0  0  0  0
   -0.7145   -0.4125    0.0000 N   0  0  0  0  0  0  0  0  0  0  0  0
    0.0000   -1.6500    0.0000 N   0  0  0  0  0  0  0  0  0  0  0  0
    0.0000   -2.4750    0.0000 C   0  0  0  0  0  0  0  0  0  0  0  0
    0.7145   -2.8875    0.0000 C   0  0  0  0  0  0  0  0  0  0  0  0
    1.4289   -2.4750    0.0000 C   0  0  0  0  0  0  0  0  0  0  0  0
    2.1434   -2.8875    0.0000 N   0  0  0  0  0  0  0  0  0  0  0  0
    2.8579   -2.4750    0.0000 C   0  0  0  0  0  0  0  0  0  0  0  0
    2.8579   -1.6500    0.0000 O   0  0  0  0  0  0  0  0  0  0  0  0
    3.5724   -2.8875    0.0000 C   0  0  0  0  0  0  0  0  0  0  0  0
    4.2868   -2.4750    0.0000 C   0  0  0  0  0  0  0  0  0  0  0  0
    5.0013   -2.8875    0.0000 C   0  0  0  0  0  0  0  0  0  0  0  0
    5.0013   -3.7125    0.0000 C   0  0  0  0  0  0  0  0  0  0  0  0
    5.7158   -4.1250    0.0000 C   0  0  0  0  0  0  0  0  0  0  0  0
    6.4302   -4.5375    0.0000 N   0  0  0  0  0  0  0  0  0  0  0  0
    4.2868   -4.1250    0.0000 C   0  0  0  0  0  0  0  0  0  0  0  0
    3.5724   -3.7125    0.0000 C   0  0  0  0  0  0  0  0  0  0  0  0
   -0.7145   -2.8875    0.0000 C   0  0  0  0  0  0  0  0  0  0  0  0
  1  2  1  0  0  0  0
  2  3  2  0  0  0  0
  3  4  1  0  0  0  0
  4  5  1  0  0  0  0
  4  6  2  0  0  0  0
  6  7  1  0  0  0  0
  7  8  1  0  0  0  0
  8  9  1  0  0  0  0
  9 10  1  0  0  0  0
 10 11  1  0  0  0  0
 11 12  2  0  0  0  0
 11 13  1  0  0  0  0
 13 14  2  0  0  0  0
 14 15  1  0  0  0  0
 15 16  2  0  0  0  0
 16 17  1  0  0  0  0
 17 18  3  0  0  0  0
 16 19  1  0  0  0  0
 19 20  2  0  0  0  0
 13 20  1  0  0  0  0
  7 21  2  0  0  0  0
  2 21  1  0  0  0  0
M  END
>  <StandardizerResult>
Tautomerize


>  <CdId>
226

>  <Mol Weight>
280.33

>  <Formula>
C16H16N4O

>  <Molecule ChEMBL ID>
CHEMBL1221659

>  <Molecule Max Phase>
0

>  <Molecular Weight>
280.33

>  <#RO5 Violations>
0

>  <AlogP>
1.82

>  <Compound Key>
1633

>  <Standard Type>
pKa_B1

>  <Standard Value>
7.1

>  <Comment>
'B1 Functional Group: 2-Pyridinamine; Ionisation Formula: A0B1 (Functional Group: the part of the molecule the pKa refers to; Ionisation formula: AxBy where 'A' refers to acidic centers within the molecule that are appreciably ionised at a pH <= 11 and 'x' equals 0, 1 or 2; and 'B' refers to basic centers within the molecule that are appreciably ionised at a pH >= 2 and 'y' equals 0, 1, 2 or 3).'

>  <Potential Duplicate>
false

>  <Assay ChEMBL ID>
CHEMBL3301362

>  <Assay Description>
ASTRAZENECA: Most basic pKa value (pKa B1) determined by absorption and potentiometric titration using standard methodology from Sirius Analytical. Experimental range Bases: >= 2.

>  <Assay Type>
P

>  <BAO Format ID>
BAO_0000100

>  <BAO Label>
small-molecule physicochemical format

>  <Target ChEMBL ID>
CHEMBL2362975

>  <Target Name>
No relevant target

>  <Target Type>
NO TARGET

>  <Document ChEMBL ID>
CHEMBL3301361

>  <Source ID>
27

>  <Source Description>
AstraZeneca Deposited Data

>  <Strongest basic pKa>
7.07

>  <deltapKa>
0.029961586643032057

>  <Strongest basic pKa_Taut>
7.07

>  <deltapKa_TAut>
0.029961586643032057

$$$$

  Mrv1920 03272013312D          

 17 19  0  0  0  0            999 V2000
   -3.0587   -1.4124    0.0000 C   0  0  0  0  0  0  0  0  0  0  0  0
   -2.6462   -0.6979    0.0000 C   0  0  0  0  0  0  0  0  0  0  0  0
   -1.8212   -0.6979    0.0000 C   0  0  0  0  0  0  0  0  0  0  0  0
   -1.4087   -1.4124    0.0000 C   0  0  0  0  0  0  0  0  0  0  0  0
   -0.5837   -1.4124    0.0000 C   0  0  0  0  0  0  0  0  0  0  0  0
   -0.1712   -0.6979    0.0000 S   0  0  0  0  0  0  0  0  0  0  0  0
    0.6538   -0.6979    0.0000 C   0  0  0  0  0  0  0  0  0  0  0  0
    1.1387   -0.0305    0.0000 N   0  0  0  0  0  0  0  0  0  0  0  0
    1.9233   -0.2854    0.0000 C   0  0  0  0  0  0  0  0  0  0  0  0
    2.6378    0.1271    0.0000 C   0  0  0  0  0  0  0  0  0  0  0  0
    3.3523   -0.2854    0.0000 C   0  0  0  0  0  0  0  0  0  0  0  0
    3.3523   -1.1104    0.0000 C   0  0  0  0  0  0  0  0  0  0  0  0
    2.6378   -1.5229    0.0000 C   0  0  0  0  0  0  0  0  0  0  0  0
    1.9233   -1.1104    0.0000 C   0  0  0  0  0  0  0  0  0  0  0  0
    1.1387   -1.3654    0.0000 O   0  0  0  0  0  0  0  0  0  0  0  0
   -1.8212   -2.1269    0.0000 N   0  0  0  0  0  0  0  0  0  0  0  0
   -2.6462   -2.1269    0.0000 C   0  0  0  0  0  0  0  0  0  0  0  0
  1  2  2  0  0  0  0
  2  3  1  0  0  0  0
  3  4  2  0  0  0  0
  4  5  1  0  0  0  0
  5  6  1  0  0  0  0
  6  7  1  0  0  0  0
  7  8  2  0  0  0  0
  8  9  1  0  0  0  0
  9 10  2  0  0  0  0
 10 11  1  0  0  0  0
 11 12  2  0  0  0  0
 12 13  1  0  0  0  0
 13 14  2  0  0  0  0
  9 14  1  0  0  0  0
 14 15  1  0  0  0  0
  7 15  1  0  0  0  0
  4 16  1  0  0  0  0
 16 17  2  0  0  0  0
  1 17  1  0  0  0  0
M  END
>  <StandardizerResult>
Tautomerize


>  <CdId>
195

>  <Mol Weight>
242.3

>  <Formula>
C13H10N2OS

>  <Molecule ChEMBL ID>
CHEMBL357782

>  <Molecule Max Phase>
0

>  <Molecular Weight>
242.3

>  <#RO5 Violations>
0

>  <AlogP>
3.52

>  <Compound Key>
1453

>  <Standard Type>
pKa_B1

>  <Standard Value>
4.3

>  <Comment>
'B1 Functional Group: Pyridine; Ionisation Formula: A0B1 (Functional Group: the part of the molecule the pKa refers to; Ionisation formula: AxBy where 'A' refers to acidic centers within the molecule that are appreciably ionised at a pH <= 11 and 'x' equals 0, 1 or 2; and 'B' refers to basic centers within the molecule that are appreciably ionised at a pH >= 2 and 'y' equals 0, 1, 2 or 3).'

>  <Potential Duplicate>
false

>  <Assay ChEMBL ID>
CHEMBL3301362

>  <Assay Description>
ASTRAZENECA: Most basic pKa value (pKa B1) determined by absorption and potentiometric titration using standard methodology from Sirius Analytical. Experimental range Bases: >= 2.

>  <Assay Type>
P

>  <BAO Format ID>
BAO_0000100

>  <BAO Label>
small-molecule physicochemical format

>  <Target ChEMBL ID>
CHEMBL2362975

>  <Target Name>
No relevant target

>  <Target Type>
NO TARGET

>  <Document ChEMBL ID>
CHEMBL3301361

>  <Source ID>
27

>  <Source Description>
AstraZeneca Deposited Data

>  <Strongest basic pKa>
4.27

>  <deltapKa>
0.03363660164401061

>  <Strongest basic pKa_Taut>
4.27

>  <deltapKa_TAut>
0.03363660164401061

$$$$

  Mrv1920 03272013312D          

 21 21  0  0  0  0            999 V2000
   -3.5724   -1.2375    0.0000 C   0  0  0  0  0  0  0  0  0  0  0  0
   -2.8579   -1.6500    0.0000 C   0  0  0  0  0  0  0  0  0  0  0  0
   -2.1434   -1.2375    0.0000 N   0  0  0  0  0  0  0  0  0  0  0  0
   -2.1434   -0.4125    0.0000 C   0  0  0  0  0  0  0  0  0  0  0  0
   -1.4289    0.0000    0.0000 C   0  0  0  0  0  0  0  0  0  0  0  0
   -1.4289   -1.6500    0.0000 C   0  0  0  0  0  0  0  0  0  0  0  0
   -0.7145   -1.2375    0.0000 C   0  0  0  0  0  0  0  0  0  0  0  0
    0.0000   -1.6500    0.0000 N   0  0  0  0  0  0  0  0  0  0  0  0
    0.7145   -1.2375    0.0000 C   0  0  0  0  0  0  0  0  0  0  0  0
    1.4289   -1.6500    0.0000 O   0  0  0  0  0  0  0  0  0  0  0  0
    0.7145   -0.4125    0.0000 C   0  0  0  0  0  0  0  0  0  0  0  0
    0.0000    0.0000    0.0000 C   0  0  0  0  0  0  0  0  0  0  0  0
    0.0000    0.8250    0.0000 C   0  0  0  0  0  0  0  0  0  0  0  0
    0.7145    1.2375    0.0000 C   0  0  0  0  0  0  0  0  0  0  0  0
    0.7145    2.0625    0.0000 N   0  0  0  0  0  0  0  0  0  0  0  0
    0.0000    2.4750    0.0000 S   0  0  0  0  0  0  0  0  0  0  0  0
   -0.7145    2.8875    0.0000 C   0  0  0  0  0  0  0  0  0  0  0  0
    0.4125    3.1895    0.0000 O   0  0  0  0  0  0  0  0  0  0  0  0
   -0.4125    1.7605    0.0000 O   0  0  0  0  0  0  0  0  0  0  0  0
    1.4289    0.8250    0.0000 C   0  0  0  0  0  0  0  0  0  0  0  0
    1.4289    0.0000    0.0000 C   0  0  0  0  0  0  0  0  0  0  0  0
  1  2  1  0  0  0  0
  2  3  1  0  0  0  0
  3  4  1  0  0  0  0
  4  5  1  0  0  0  0
  3  6  1  0  0  0  0
  6  7  1  0  0  0  0
  7  8  1  0  0  0  0
  8  9  1  0  0  0  0
  9 10  2  0  0  0  0
  9 11  1  0  0  0  0
 11 12  2  0  0  0  0
 12 13  1  0  0  0  0
 13 14  2  0  0  0  0
 14 15  1  0  0  0  0
 15 16  1  0  0  0  0
 16 17  1  0  0  0  0
 16 18  2  0  0  0  0
 16 19  2  0  0  0  0
 14 20  1  0  0  0  0
 20 21  2  0  0  0  0
 11 21  1  0  0  0  0
M  END
>  <StandardizerResult>
Tautomerize


>  <CdId>
261

>  <Mol Weight>
313.42

>  <Formula>
C14H23N3O3S

>  <Molecule ChEMBL ID>
CHEMBL95804

>  <Molecule Name>
SEMATILIDE

>  <Molecule Max Phase>
0

>  <Molecular Weight>
313.42

>  <#RO5 Violations>
0

>  <AlogP>
1.13

>  <Compound Key>
559

>  <Standard Type>
pKa_B1

>  <Standard Value>
9.35

>  <Comment>
'B1 Functional Group: Tertiary amine; Ionisation Formula: A1B1 (Functional Group: the part of the molecule the pKa refers to; Ionisation formula: AxBy where 'A' refers to acidic centers within the molecule that are appreciably ionised at a pH <= 11 and 'x' equals 0, 1 or 2; and 'B' refers to basic centers within the molecule that are appreciably ionised at a pH >= 2 and 'y' equals 0, 1, 2 or 3).'

>  <Potential Duplicate>
false

>  <Assay ChEMBL ID>
CHEMBL3301362

>  <Assay Description>
ASTRAZENECA: Most basic pKa value (pKa B1) determined by absorption and potentiometric titration using standard methodology from Sirius Analytical. Experimental range Bases: >= 2.

>  <Assay Type>
P

>  <BAO Format ID>
BAO_0000100

>  <BAO Label>
small-molecule physicochemical format

>  <Target ChEMBL ID>
CHEMBL2362975

>  <Target Name>
No relevant target

>  <Target Type>
NO TARGET

>  <Document ChEMBL ID>
CHEMBL3301361

>  <Source ID>
27

>  <Source Description>
AstraZeneca Deposited Data

>  <Strongest basic pKa>
9.29

>  <deltapKa>
0.055102257738726124

>  <Strongest basic pKa_Taut>
9.29

>  <deltapKa_TAut>
0.055102257738726124

$$$$

  Mrv1920 03272013312D          

 28 31  0  0  1  0            999 V2000
   -2.1434   -1.2375    0.0000 C   0  0  0  0  0  0  0  0  0  0  0  0
   -1.4289   -1.6500    0.0000 C   0  0  1  0  0  0  0  0  0  0  0  0
   -0.7145   -1.2375    0.0000 C   0  0  0  0  0  0  0  0  0  0  0  0
    0.0000   -1.6500    0.0000 N   0  0  0  0  0  0  0  0  0  0  0  0
    0.7145   -1.2375    0.0000 C   0  0  0  0  0  0  0  0  0  0  0  0
    0.7145   -0.4125    0.0000 C   0  0  0  0  0  0  0  0  0  0  0  0
    0.0000    0.0000    0.0000 F   0  0  0  0  0  0  0  0  0  0  0  0
    1.4289    0.0000    0.0000 C   0  0  0  0  0  0  0  0  0  0  0  0
    1.4289    0.8250    0.0000 N   0  0  0  0  0  0  0  0  0  0  0  0
    2.1434   -0.4125    0.0000 C   0  0  0  0  0  0  0  0  0  0  0  0
    2.8579    0.0000    0.0000 C   0  0  0  0  0  0  0  0  0  0  0  0
    2.8579    0.8250    0.0000 O   0  0  0  0  0  0  0  0  0  0  0  0
    3.5724   -0.4125    0.0000 C   0  0  0  0  0  0  0  0  0  0  0  0
    4.2868    0.0000    0.0000 C   0  0  0  0  0  0  0  0  0  0  0  0
    4.2868    0.8250    0.0000 O   0  0  0  0  0  0  0  0  0  0  0  0
    5.0013   -0.4125    0.0000 O   0  0  0  0  0  0  0  0  0  0  0  0
    3.5724   -1.2375    0.0000 C   0  0  0  0  0  0  0  0  0  0  0  0
    2.8579   -1.6500    0.0000 N   0  0  0  0  0  0  0  0  0  0  0  0
    2.8579   -2.4750    0.0000 C   0  0  0  0  0  0  0  0  0  0  0  0
    3.2704   -3.1895    0.0000 C   0  0  0  0  0  0  0  0  0  0  0  0
    2.4454   -3.1895    0.0000 C   0  0  0  0  0  0  0  0  0  0  0  0
    2.1434   -1.2375    0.0000 C   0  0  0  0  0  0  0  0  0  0  0  0
    1.4289   -1.6500    0.0000 C   0  0  0  0  0  0  0  0  0  0  0  0
    1.4289   -2.4750    0.0000 F   0  0  0  0  0  0  0  0  0  0  0  0
    0.0000   -2.4750    0.0000 C   0  0  0  0  0  0  0  0  0  0  0  0
   -0.7145   -2.8875    0.0000 C   0  0  1  0  0  0  0  0  0  0  0  0
   -0.7145   -3.7125    0.0000 C   0  0  0  0  0  0  0  0  0  0  0  0
   -1.4289   -2.4750    0.0000 N   0  0  0  0  0  0  0  0  0  0  0  0
  2  1  1  1  0  0  0
  2  3  1  0  0  0  0
  3  4  1  0  0  0  0
  4  5  1  0  0  0  0
  5  6  2  0  0  0  0
  6  7  1  0  0  0  0
  6  8  1  0  0  0  0
  8  9  1  0  0  0  0
  8 10  2  0  0  0  0
 10 11  1  0  0  0  0
 11 12  2  0  0  0  0
 11 13  1  0  0  0  0
 13 14  1  0  0  0  0
 14 15  2  0  0  0  0
 14 16  1  0  0  0  0
 13 17  2  0  0  0  0
 17 18  1  0  0  0  0
 18 19  1  0  0  0  0
 19 20  1  0  0  0  0
 20 21  1  0  0  0  0
 19 21  1  0  0  0  0
 18 22  1  0  0  0  0
 10 22  1  0  0  0  0
 22 23  2  0  0  0  0
  5 23  1  0  0  0  0
 23 24  1  0  0  0  0
  4 25  1  0  0  0  0
 26 25  1  0  0  0  0
 26 27  1  1  0  0  0
 26 28  1  0  0  0  0
  2 28  1  0  0  0  0
M  END
>  <StandardizerResult>
Tautomerize


>  <CdId>
159

>  <Mol Weight>
392.41

>  <Formula>
C19H22F2N4O3

>  <Molecule ChEMBL ID>
CHEMBL850

>  <Molecule Name>
SPARFLOXACIN

>  <Molecule Max Phase>
4

>  <Molecular Weight>
392.41

>  <#RO5 Violations>
0

>  <AlogP>
2.08

>  <Compound Key>
1956

>  <Standard Type>
pKa_B1

>  <Standard Value>
8.94

>  <Comment>
'B1 Functional Group: Piperazine; Ionisation Formula: A1B1 (Functional Group: the part of the molecule the pKa refers to; Ionisation formula: AxBy where 'A' refers to acidic centers within the molecule that are appreciably ionised at a pH <= 11 and 'x' equals 0, 1 or 2; and 'B' refers to basic centers within the molecule that are appreciably ionised at a pH >= 2 and 'y' equals 0, 1, 2 or 3).'

>  <Potential Duplicate>
false

>  <Assay ChEMBL ID>
CHEMBL3301362

>  <Assay Description>
ASTRAZENECA: Most basic pKa value (pKa B1) determined by absorption and potentiometric titration using standard methodology from Sirius Analytical. Experimental range Bases: >= 2.

>  <Assay Type>
P

>  <BAO Format ID>
BAO_0000100

>  <BAO Label>
small-molecule physicochemical format

>  <Target ChEMBL ID>
CHEMBL2362975

>  <Target Name>
No relevant target

>  <Target Type>
NO TARGET

>  <Document ChEMBL ID>
CHEMBL3301361

>  <Source ID>
27

>  <Source Description>
AstraZeneca Deposited Data

>  <Strongest basic pKa>
8.88

>  <deltapKa>
0.06072152842112821

>  <Strongest basic pKa_Taut>
8.88

>  <deltapKa_TAut>
0.06072152842112821

$$$$

  Mrv1920 03272013312D          

 23 25  0  0  0  0            999 V2000
    2.1434   -2.8875    0.0000 C   0  0  0  0  0  0  0  0  0  0  0  0
    1.4289   -2.4750    0.0000 C   0  0  0  0  0  0  0  0  0  0  0  0
    1.4289   -1.6500    0.0000 N   0  0  0  0  0  0  0  0  0  0  0  0
    0.7145   -1.2375    0.0000 C   0  0  0  0  0  0  0  0  0  0  0  0
    0.7145   -0.4125    0.0000 C   0  0  0  0  0  0  0  0  0  0  0  0
    0.0000    0.0000    0.0000 C   0  0  0  0  0  0  0  0  0  0  0  0
    0.0000    0.8250    0.0000 O   0  0  0  0  0  0  0  0  0  0  0  0
   -0.7145   -0.4125    0.0000 O   0  0  0  0  0  0  0  0  0  0  0  0
    1.4289    0.0000    0.0000 C   0  0  0  0  0  0  0  0  0  0  0  0
    1.4289    0.8250    0.0000 O   0  0  0  0  0  0  0  0  0  0  0  0
    2.1434   -0.4125    0.0000 C   0  0  0  0  0  0  0  0  0  0  0  0
    2.8579    0.0000    0.0000 C   0  0  0  0  0  0  0  0  0  0  0  0
    3.5724   -0.4125    0.0000 C   0  0  0  0  0  0  0  0  0  0  0  0
    4.2868    0.0000    0.0000 F   0  0  0  0  0  0  0  0  0  0  0  0
    3.5724   -1.2375    0.0000 C   0  0  0  0  0  0  0  0  0  0  0  0
    4.2868   -1.6500    0.0000 N   0  0  0  0  0  0  0  0  0  0  0  0
    5.0013   -1.2375    0.0000 C   0  0  0  0  0  0  0  0  0  0  0  0
    5.7158   -1.6500    0.0000 C   0  0  0  0  0  0  0  0  0  0  0  0
    5.7158   -2.4750    0.0000 N   0  0  0  0  0  0  0  0  0  0  0  0
    5.0013   -2.8875    0.0000 C   0  0  0  0  0  0  0  0  0  0  0  0
    4.2868   -2.4750    0.0000 C   0  0  0  0  0  0  0  0  0  0  0  0
    2.8579   -1.6500    0.0000 N   0  0  0  0  0  0  0  0  0  0  0  0
    2.1434   -1.2375    0.0000 C   0  0  0  0  0  0  0  0  0  0  0  0
  1  2  1  0  0  0  0
  2  3  1  0  0  0  0
  3  4  1  0  0  0  0
  4  5  2  0  0  0  0
  5  6  1  0  0  0  0
  6  7  2  0  0  0  0
  6  8  1  0  0  0  0
  5  9  1  0  0  0  0
  9 10  2  0  0  0  0
  9 11  1  0  0  0  0
 11 12  2  0  0  0  0
 12 13  1  0  0  0  0
 13 14  1  0  0  0  0
 13 15  2  0  0  0  0
 15 16  1  0  0  0  0
 16 17  1  0  0  0  0
 17 18  1  0  0  0  0
 18 19  1  0  0  0  0
 19 20  1  0  0  0  0
 20 21  1  0  0  0  0
 16 21  1  0  0  0  0
 15 22  1  0  0  0  0
 22 23  2  0  0  0  0
 11 23  1  0  0  0  0
  3 23  1  0  0  0  0
M  END
>  <StandardizerResult>
Tautomerize


>  <CdId>
174

>  <Mol Weight>
320.32

>  <Formula>
C15H17FN4O3

>  <Molecule ChEMBL ID>
CHEMBL826

>  <Molecule Name>
ENOXACIN

>  <Molecule Max Phase>
4

>  <Molecular Weight>
320.32

>  <#RO5 Violations>
0

>  <AlogP>
0.66

>  <Compound Key>
1381

>  <Standard Type>
pKa_B1

>  <Standard Value>
8.76

>  <Comment>
'B1 Functional Group: Piperazine; Ionisation Formula: A1B1 (Functional Group: the part of the molecule the pKa refers to; Ionisation formula: AxBy where 'A' refers to acidic centers within the molecule that are appreciably ionised at a pH <= 11 and 'x' equals 0, 1 or 2; and 'B' refers to basic centers within the molecule that are appreciably ionised at a pH >= 2 and 'y' equals 0, 1, 2 or 3).'

>  <Potential Duplicate>
false

>  <Assay ChEMBL ID>
CHEMBL3301362

>  <Assay Description>
ASTRAZENECA: Most basic pKa value (pKa B1) determined by absorption and potentiometric titration using standard methodology from Sirius Analytical. Experimental range Bases: >= 2.

>  <Assay Type>
P

>  <BAO Format ID>
BAO_0000100

>  <BAO Label>
small-molecule physicochemical format

>  <Target ChEMBL ID>
CHEMBL2362975

>  <Target Name>
No relevant target

>  <Target Type>
NO TARGET

>  <Document ChEMBL ID>
CHEMBL3301361

>  <Source ID>
27

>  <Source Description>
AstraZeneca Deposited Data

>  <Strongest basic pKa>
8.68

>  <deltapKa>
0.08057545593706017

>  <Strongest basic pKa_Taut>
8.68

>  <deltapKa_TAut>
0.08057545593706017

$$$$

  Mrv1920 03272013312D          

 25 27  0  0  0  0            999 V2000
    2.1434   -2.8875    0.0000 C   0  0  0  0  0  0  0  0  0  0  0  0
    1.4289   -2.4750    0.0000 C   0  0  0  0  0  0  0  0  0  0  0  0
    1.4289   -1.6500    0.0000 N   0  0  0  0  0  0  0  0  0  0  0  0
    0.7145   -1.2375    0.0000 C   0  0  0  0  0  0  0  0  0  0  0  0
    0.7145   -0.4125    0.0000 C   0  0  0  0  0  0  0  0  0  0  0  0
    0.0000    0.0000    0.0000 C   0  0  0  0  0  0  0  0  0  0  0  0
    0.0000    0.8250    0.0000 O   0  0  0  0  0  0  0  0  0  0  0  0
   -0.7145   -0.4125    0.0000 O   0  0  0  0  0  0  0  0  0  0  0  0
    1.4289    0.0000    0.0000 C   0  0  0  0  0  0  0  0  0  0  0  0
    1.4289    0.8250    0.0000 O   0  0  0  0  0  0  0  0  0  0  0  0
    2.1434   -0.4125    0.0000 C   0  0  0  0  0  0  0  0  0  0  0  0
    2.8579    0.0000    0.0000 C   0  0  0  0  0  0  0  0  0  0  0  0
    3.5724   -0.4125    0.0000 C   0  0  0  0  0  0  0  0  0  0  0  0
    4.2868    0.0000    0.0000 F   0  0  0  0  0  0  0  0  0  0  0  0
    3.5724   -1.2375    0.0000 C   0  0  0  0  0  0  0  0  0  0  0  0
    4.2868   -1.6500    0.0000 N   0  0  0  0  0  0  0  0  0  0  0  0
    5.0013   -1.2375    0.0000 C   0  0  0  0  0  0  0  0  0  0  0  0
    5.7158   -1.6500    0.0000 C   0  0  0  0  0  0  0  0  0  0  0  0
    5.7158   -2.4750    0.0000 N   0  0  0  0  0  0  0  0  0  0  0  0
    5.0013   -2.8875    0.0000 C   0  0  0  0  0  0  0  0  0  0  0  0
    5.0013   -3.7125    0.0000 C   0  0  0  0  0  0  0  0  0  0  0  0
    4.2868   -2.4750    0.0000 C   0  0  0  0  0  0  0  0  0  0  0  0
    2.8579   -1.6500    0.0000 C   0  0  0  0  0  0  0  0  0  0  0  0
    2.8579   -2.4750    0.0000 F   0  0  0  0  0  0  0  0  0  0  0  0
    2.1434   -1.2375    0.0000 C   0  0  0  0  0  0  0  0  0  0  0  0
  1  2  1  0  0  0  0
  2  3  1  0  0  0  0
  3  4  1  0  0  0  0
  4  5  2  0  0  0  0
  5  6  1  0  0  0  0
  6  7  2  0  0  0  0
  6  8  1  0  0  0  0
  5  9  1  0  0  0  0
  9 10  2  0  0  0  0
  9 11  1  0  0  0  0
 11 12  2  0  0  0  0
 12 13  1  0  0  0  0
 13 14  1  0  0  0  0
 13 15  2  0  0  0  0
 15 16  1  0  0  0  0
 16 17  1  0  0  0  0
 17 18  1  0  0  0  0
 18 19  1  0  0  0  0
 19 20  1  0  0  0  0
 20 21  1  0  0  0  0
 20 22  1  0  0  0  0
 16 22  1  0  0  0  0
 15 23  1  0  0  0  0
 23 24  1  0  0  0  0
 23 25  2  0  0  0  0
 11 25  1  0  0  0  0
  3 25  1  0  0  0  0
M  END
>  <StandardizerResult>
Tautomerize


>  <CdId>
158

>  <Mol Weight>
351.35

>  <Formula>
C17H19F2N3O3

>  <Molecule ChEMBL ID>
CHEMBL561

>  <Molecule Name>
LOMEFLOXACIN

>  <Molecule Max Phase>
4

>  <Molecular Weight>
351.35

>  <#RO5 Violations>
0

>  <AlogP>
1.8

>  <Compound Key>
1700

>  <Standard Type>
pKa_B1

>  <Standard Value>
8.87

>  <Comment>
'B1 Functional Group: Piperazine; Ionisation Formula: A1B1 (Functional Group: the part of the molecule the pKa refers to; Ionisation formula: AxBy where 'A' refers to acidic centers within the molecule that are appreciably ionised at a pH <= 11 and 'x' equals 0, 1 or 2; and 'B' refers to basic centers within the molecule that are appreciably ionised at a pH >= 2 and 'y' equals 0, 1, 2 or 3).'

>  <Potential Duplicate>
false

>  <Assay ChEMBL ID>
CHEMBL3301362

>  <Assay Description>
ASTRAZENECA: Most basic pKa value (pKa B1) determined by absorption and potentiometric titration using standard methodology from Sirius Analytical. Experimental range Bases: >= 2.

>  <Assay Type>
P

>  <BAO Format ID>
BAO_0000100

>  <BAO Label>
small-molecule physicochemical format

>  <Target ChEMBL ID>
CHEMBL2362975

>  <Target Name>
No relevant target

>  <Target Type>
NO TARGET

>  <Document ChEMBL ID>
CHEMBL3301361

>  <Source ID>
27

>  <Source Description>
AstraZeneca Deposited Data

>  <Strongest basic pKa>
8.78

>  <deltapKa>
0.08606239229026436

>  <Strongest basic pKa_Taut>
8.78

>  <deltapKa_TAut>
0.08606239229026436

$$$$

  Mrv1920 03272013312D          

 18 19  0  0  0  0            999 V2000
    0.7145   -0.4125    0.0000 N   0  0  0  0  0  0  0  0  0  0  0  0
    0.7145   -1.2375    0.0000 C   0  0  0  0  0  0  0  0  0  0  0  0
    1.4289   -1.6500    0.0000 C   0  0  0  0  0  0  0  0  0  0  0  0
    1.4289   -2.4750    0.0000 C   0  0  0  0  0  0  0  0  0  0  0  0
    0.7145   -2.8875    0.0000 C   0  0  0  0  0  0  0  0  0  0  0  0
    0.7145   -3.7125    0.0000 O   0  0  0  0  0  0  0  0  0  0  0  0
    1.4289   -4.1250    0.0000 C   0  0  0  0  0  0  0  0  0  0  0  0
    1.4289   -4.9500    0.0000 C   0  0  0  0  0  0  0  0  0  0  0  0
    2.1434   -5.3625    0.0000 O   0  0  0  0  0  0  0  0  0  0  0  0
    0.7145   -5.3625    0.0000 O   0  0  0  0  0  0  0  0  0  0  0  0
    0.0000   -2.4750    0.0000 C   0  0  0  0  0  0  0  0  0  0  0  0
   -0.7145   -2.8875    0.0000 C   0  0  0  0  0  0  0  0  0  0  0  0
   -0.7145   -3.7125    0.0000 C   0  0  0  0  0  0  0  0  0  0  0  0
   -1.4289   -4.1250    0.0000 C   0  0  0  0  0  0  0  0  0  0  0  0
   -2.1434   -3.7125    0.0000 C   0  0  0  0  0  0  0  0  0  0  0  0
   -2.1434   -2.8875    0.0000 C   0  0  0  0  0  0  0  0  0  0  0  0
   -1.4289   -2.4750    0.0000 C   0  0  0  0  0  0  0  0  0  0  0  0
    0.0000   -1.6500    0.0000 C   0  0  0  0  0  0  0  0  0  0  0  0
  1  2  1  0  0  0  0
  2  3  2  0  0  0  0
  3  4  1  0  0  0  0
  4  5  2  0  0  0  0
  5  6  1  0  0  0  0
  6  7  1  0  0  0  0
  7  8  1  0  0  0  0
  8  9  2  0  0  0  0
  8 10  1  0  0  0  0
  5 11  1  0  0  0  0
 11 12  1  0  0  0  0
 12 13  2  0  0  0  0
 13 14  1  0  0  0  0
 14 15  2  0  0  0  0
 15 16  1  0  0  0  0
 16 17  2  0  0  0  0
 12 17  1  0  0  0  0
 11 18  2  0  0  0  0
  2 18  1  0  0  0  0
M  END
>  <StandardizerResult>
Tautomerize


>  <CdId>
20

>  <Mol Weight>
243.26

>  <Formula>
C14H13NO3

>  <Molecule ChEMBL ID>
CHEMBL1778620

>  <Molecule Max Phase>
0

>  <Molecular Weight>
243.26

>  <#RO5 Violations>
0

>  <AlogP>
2.4

>  <Compound Key>
2373

>  <Standard Type>
pKa_B1

>  <Standard Value>
5.1

>  <Comment>
'B1 Functional Group: Aniline; Ionisation Formula: A1B1 (Functional Group: the part of the molecule the pKa refers to; Ionisation formula: AxBy where 'A' refers to acidic centers within the molecule that are appreciably ionised at a pH <= 11 and 'x' equals 0, 1 or 2; and 'B' refers to basic centers within the molecule that are appreciably ionised at a pH >= 2 and 'y' equals 0, 1, 2 or 3).'

>  <Potential Duplicate>
false

>  <Assay ChEMBL ID>
CHEMBL3301362

>  <Assay Description>
ASTRAZENECA: Most basic pKa value (pKa B1) determined by absorption and potentiometric titration using standard methodology from Sirius Analytical. Experimental range Bases: >= 2.

>  <Assay Type>
P

>  <BAO Format ID>
BAO_0000100

>  <BAO Label>
small-molecule physicochemical format

>  <Target ChEMBL ID>
CHEMBL2362975

>  <Target Name>
No relevant target

>  <Target Type>
NO TARGET

>  <Document ChEMBL ID>
CHEMBL3301361

>  <Source ID>
27

>  <Source Description>
AstraZeneca Deposited Data

>  <Strongest basic pKa>
5.01

>  <deltapKa>
0.09049538867969442

>  <Strongest basic pKa_Taut>
5.01

>  <deltapKa_TAut>
0.09049538867969442

$$$$

  Mrv1920 03272013312D          

 18 19  0  0  0  0            999 V2000
    0.3190   -0.4179    0.0000 N   0  0  0  0  0  0  0  0  0  0  0  0
    0.5739    0.3667    0.0000 C   0  0  0  0  0  0  0  0  0  0  0  0
    0.0219    0.9798    0.0000 N   0  0  0  0  0  0  0  0  0  0  0  0
    0.2768    1.7644    0.0000 C   0  0  0  0  0  0  0  0  0  0  0  0
   -0.2752    2.3775    0.0000 O   0  0  0  0  0  0  0  0  0  0  0  0
    1.0838    1.9359    0.0000 C   0  0  0  0  0  0  0  0  0  0  0  0
    1.4963    2.6504    0.0000 N   0  0  0  0  0  0  0  0  0  0  0  0
    2.3032    2.4789    0.0000 C   0  0  0  0  0  0  0  0  0  0  0  0
    2.3895    1.6584    0.0000 N   0  0  0  0  0  0  0  0  0  0  0  0
    3.1039    1.2459    0.0000 C   0  0  0  0  0  0  0  0  0  0  0  0
    3.1039    0.4209    0.0000 C   0  0  0  0  0  0  0  0  0  0  0  0
    3.8184    0.0084    0.0000 C   0  0  0  0  0  0  0  0  0  0  0  0
    3.8184   -0.8166    0.0000 C   0  0  0  0  0  0  0  0  0  0  0  0
    4.5329   -1.2291    0.0000 O   0  0  0  0  0  0  0  0  0  0  0  0
    4.5329    0.4209    0.0000 C   0  0  0  0  0  0  0  0  0  0  0  0
    5.2474    0.0084    0.0000 O   0  0  0  0  0  0  0  0  0  0  0  0
    1.6358    1.3228    0.0000 C   0  0  0  0  0  0  0  0  0  0  0  0
    1.3809    0.5382    0.0000 N   0  0  0  0  0  0  0  0  0  0  0  0
  1  2  1  0  0  0  0
  2  3  2  0  0  0  0
  3  4  1  0  0  0  0
  4  5  2  0  0  0  0
  4  6  1  0  0  0  0
  6  7  1  0  0  0  0
  7  8  2  0  0  0  0
  8  9  1  0  0  0  0
  9 10  1  0  0  0  0
 10 11  1  0  0  0  0
 11 12  1  0  0  0  0
 12 13  1  0  0  0  0
 13 14  1  0  0  0  0
 12 15  1  0  0  0  0
 15 16  1  0  0  0  0
  9 17  1  0  0  0  0
  6 17  2  0  0  0  0
 17 18  1  0  0  0  0
  2 18  1  0  0  0  0
M  END
>  <StandardizerResult>
Tautomerize


>  <CdId>
40

>  <Mol Weight>
253.26

>  <Formula>
C10H15N5O3

>  <Molecule ChEMBL ID>
CHEMBL1540

>  <Molecule Name>
PENCICLOVIR

>  <Molecule Max Phase>
4

>  <Molecular Weight>
253.26

>  <#RO5 Violations>
0

>  <AlogP>
-0.9

>  <Compound Key>
PENCICLOVIR

>  <Standard Type>
pKa_B1

>  <Standard Value>
2.97

>  <Comment>
'B1 Functional Group: 9H-purin-6-ol, 2-amino-; Ionisation Formula: A1B1 (Functional Group: the part of the molecule the pKa refers to; Ionisation formula: AxBy where 'A' refers to acidic centers within the molecule that are appreciably ionised at a pH <= 11 and 'x' equals 0, 1 or 2; and 'B' refers to basic centers within the molecule that are appreciably ionised at a pH >= 2 and 'y' equals 0, 1, 2 or 3).'

>  <Potential Duplicate>
false

>  <Assay ChEMBL ID>
CHEMBL3301362

>  <Assay Description>
ASTRAZENECA: Most basic pKa value (pKa B1) determined by absorption and potentiometric titration using standard methodology from Sirius Analytical. Experimental range Bases: >= 2.

>  <Assay Type>
P

>  <BAO Format ID>
BAO_0000100

>  <BAO Label>
small-molecule physicochemical format

>  <Target ChEMBL ID>
CHEMBL2362975

>  <Target Name>
No relevant target

>  <Target Type>
NO TARGET

>  <Document ChEMBL ID>
CHEMBL3301361

>  <Source ID>
27

>  <Source Description>
AstraZeneca Deposited Data

>  <Strongest basic pKa>
0.94

>  <deltapKa>
2.027301583808427

>  <Strongest basic pKa_Taut>
2.88

>  <deltapKa_TAut>
0.09375746091368731

$$$$

  Mrv1920 03272013312D          

 20 20  0  0  0  0            999 V2000
   -3.5724   -1.2375    0.0000 C   0  0  0  0  0  0  0  0  0  0  0  0
   -2.8579   -1.6500    0.0000 C   0  0  0  0  0  0  0  0  0  0  0  0
   -2.1434   -1.2375    0.0000 N   0  0  0  0  0  0  0  0  0  0  0  0
   -2.1434   -0.4125    0.0000 C   0  0  0  0  0  0  0  0  0  0  0  0
   -1.4289    0.0000    0.0000 C   0  0  0  0  0  0  0  0  0  0  0  0
   -1.4289   -1.6500    0.0000 C   0  0  0  0  0  0  0  0  0  0  0  0
   -0.7145   -1.2375    0.0000 C   0  0  0  0  0  0  0  0  0  0  0  0
    0.0000   -1.6500    0.0000 N   0  0  0  0  0  0  0  0  0  0  0  0
    0.7145   -1.2375    0.0000 C   0  0  0  0  0  0  0  0  0  0  0  0
    1.4289   -1.6500    0.0000 O   0  0  0  0  0  0  0  0  0  0  0  0
    0.7145   -0.4125    0.0000 C   0  0  0  0  0  0  0  0  0  0  0  0
    0.0000    0.0000    0.0000 C   0  0  0  0  0  0  0  0  0  0  0  0
    0.0000    0.8250    0.0000 C   0  0  0  0  0  0  0  0  0  0  0  0
    0.7145    1.2375    0.0000 C   0  0  0  0  0  0  0  0  0  0  0  0
    0.7145    2.0625    0.0000 N   0  0  0  0  0  0  0  0  0  0  0  0
    1.4289    2.4750    0.0000 C   0  0  0  0  0  0  0  0  0  0  0  0
    1.4289    3.3000    0.0000 C   0  0  0  0  0  0  0  0  0  0  0  0
    2.1434    2.0625    0.0000 O   0  0  0  0  0  0  0  0  0  0  0  0
    1.4289    0.8250    0.0000 C   0  0  0  0  0  0  0  0  0  0  0  0
    1.4289    0.0000    0.0000 C   0  0  0  0  0  0  0  0  0  0  0  0
  1  2  1  0  0  0  0
  2  3  1  0  0  0  0
  3  4  1  0  0  0  0
  4  5  1  0  0  0  0
  3  6  1  0  0  0  0
  6  7  1  0  0  0  0
  7  8  1  0  0  0  0
  8  9  1  0  0  0  0
  9 10  2  0  0  0  0
  9 11  1  0  0  0  0
 11 12  2  0  0  0  0
 12 13  1  0  0  0  0
 13 14  2  0  0  0  0
 14 15  1  0  0  0  0
 15 16  1  0  0  0  0
 16 17  1  0  0  0  0
 16 18  2  0  0  0  0
 14 19  1  0  0  0  0
 19 20  2  0  0  0  0
 11 20  1  0  0  0  0
M  END
>  <StandardizerResult>
Tautomerize


>  <CdId>
134

>  <Mol Weight>
277.37

>  <Formula>
C15H23N3O2

>  <Molecule ChEMBL ID>
CHEMBL1097

>  <Molecule Name>
ACECAINIDE

>  <Molecule Max Phase>
0

>  <Molecular Weight>
277.37

>  <#RO5 Violations>
0

>  <AlogP>
1.72

>  <Compound Key>
1512

>  <Standard Type>
pKa_B1

>  <Standard Value>
9.14

>  <Comment>
'B1 Functional Group: Tertiary amine; Ionisation Formula: A0B1 (Functional Group: the part of the molecule the pKa refers to; Ionisation formula: AxBy where 'A' refers to acidic centers within the molecule that are appreciably ionised at a pH <= 11 and 'x' equals 0, 1 or 2; and 'B' refers to basic centers within the molecule that are appreciably ionised at a pH >= 2 and 'y' equals 0, 1, 2 or 3).'

>  <Potential Duplicate>
false

>  <Assay ChEMBL ID>
CHEMBL3301362

>  <Assay Description>
ASTRAZENECA: Most basic pKa value (pKa B1) determined by absorption and potentiometric titration using standard methodology from Sirius Analytical. Experimental range Bases: >= 2.

>  <Assay Type>
P

>  <BAO Format ID>
BAO_0000100

>  <BAO Label>
small-molecule physicochemical format

>  <Target ChEMBL ID>
CHEMBL2362975

>  <Target Name>
No relevant target

>  <Target Type>
NO TARGET

>  <Document ChEMBL ID>
CHEMBL3301361

>  <Source ID>
27

>  <Source Description>
AstraZeneca Deposited Data

>  <Strongest basic pKa>
9.04

>  <deltapKa>
0.09566167868571895

>  <Strongest basic pKa_Taut>
9.04

>  <deltapKa_TAut>
0.09566167868571895

$$$$

  Mrv1920 03272013312D          

 34 36  0  0  0  0            999 V2000
    5.0013   -4.5375    0.0000 C   0  0  0  0  0  0  0  0  0  0  0  0
    4.2868   -4.9500    0.0000 O   0  0  0  0  0  0  0  0  0  0  0  0
    3.5724   -4.5375    0.0000 C   0  0  0  0  0  0  0  0  0  0  0  0
    2.8579   -4.9500    0.0000 C   0  0  0  0  0  0  0  0  0  0  0  0
    2.1434   -4.5375    0.0000 C   0  0  0  0  0  0  0  0  0  0  0  0
    2.1434   -3.7125    0.0000 C   0  0  0  0  0  0  0  0  0  0  0  0
    1.4289   -3.3000    0.0000 C   0  0  0  0  0  0  0  0  0  0  0  0
    0.7145   -3.7125    0.0000 O   0  0  0  0  0  0  0  0  0  0  0  0
    0.0000   -3.3000    0.0000 C   0  0  0  0  0  0  0  0  0  0  0  0
   -0.7145   -3.7125    0.0000 N   0  0  0  0  0  0  0  0  0  0  0  0
   -1.4289   -3.3000    0.0000 C   0  0  0  0  0  0  0  0  0  0  0  0
   -2.1434   -3.7125    0.0000 Br  0  0  0  0  0  0  0  0  0  0  0  0
   -1.4289   -2.4750    0.0000 C   0  0  0  0  0  0  0  0  0  0  0  0
   -0.7145   -2.0625    0.0000 N   0  0  0  0  0  0  0  0  0  0  0  0
    0.0000   -2.4750    0.0000 C   0  0  0  0  0  0  0  0  0  0  0  0
    0.7145   -2.0625    0.0000 N   0  0  0  0  0  0  0  0  0  0  0  0
    0.7145   -1.2375    0.0000 S   0  0  0  0  0  0  0  0  0  0  0  0
   -0.1105   -1.2375    0.0000 O   0  0  0  0  0  0  0  0  0  0  0  0
    1.5395   -1.2375    0.0000 O   0  0  0  0  0  0  0  0  0  0  0  0
    0.7145   -0.4125    0.0000 C   0  0  0  0  0  0  0  0  0  0  0  0
    0.0000    0.0000    0.0000 C   0  0  0  0  0  0  0  0  0  0  0  0
    0.0000    0.8250    0.0000 C   0  0  0  0  0  0  0  0  0  0  0  0
    0.7145    1.2375    0.0000 C   0  0  0  0  0  0  0  0  0  0  0  0
    0.7145    2.0625    0.0000 C   0  0  0  0  0  0  0  0  0  0  0  0
    1.4289    0.8250    0.0000 C   0  0  0  0  0  0  0  0  0  0  0  0
    1.4289    0.0000    0.0000 C   0  0  0  0  0  0  0  0  0  0  0  0
    2.8579   -3.3000    0.0000 C   0  0  0  0  0  0  0  0  0  0  0  0
    3.5724   -3.7125    0.0000 C   0  0  0  0  0  0  0  0  0  0  0  0
    4.2868   -3.3000    0.0000 O   0  0  0  0  0  0  0  0  0  0  0  0
    5.0013   -3.7125    0.0000 C   0  0  0  0  0  0  0  0  0  0  0  0
    5.7158   -3.3000    0.0000 C   0  0  0  0  0  0  0  0  0  0  0  0
    6.4302   -3.7125    0.0000 N   0  0  0  0  0  0  0  0  0  0  0  0
    7.1447   -3.3000    0.0000 C   0  0  0  0  0  0  0  0  0  0  0  0
    6.4302   -4.5375    0.0000 C   0  0  0  0  0  0  0  0  0  0  0  0
  1  2  1  0  0  0  0
  2  3  1  0  0  0  0
  3  4  2  0  0  0  0
  4  5  1  0  0  0  0
  5  6  2  0  0  0  0
  6  7  1  0  0  0  0
  7  8  1  0  0  0  0
  8  9  1  0  0  0  0
  9 10  2  0  0  0  0
 10 11  1  0  0  0  0
 11 12  1  0  0  0  0
 11 13  2  0  0  0  0
 13 14  1  0  0  0  0
 14 15  2  0  0  0  0
  9 15  1  0  0  0  0
 15 16  1  0  0  0  0
 16 17  1  0  0  0  0
 17 18  2  0  0  0  0
 17 19  2  0  0  0  0
 17 20  1  0  0  0  0
 20 21  2  0  0  0  0
 21 22  1  0  0  0  0
 22 23  2  0  0  0  0
 23 24  1  0  0  0  0
 23 25  1  0  0  0  0
 25 26  2  0  0  0  0
 20 26  1  0  0  0  0
  6 27  1  0  0  0  0
 27 28  2  0  0  0  0
  3 28  1  0  0  0  0
 28 29  1  0  0  0  0
 29 30  1  0  0  0  0
 30 31  1  0  0  0  0
 31 32  1  0  0  0  0
 32 33  1  0  0  0  0
 32 34  1  0  0  0  0
M  END
>  <StandardizerResult>
Tautomerize


>  <CdId>
115

>  <Mol Weight>
551.46

>  <Formula>
C23H27BrN4O5S

>  <Molecule ChEMBL ID>
CHEMBL2018954

>  <Molecule Max Phase>
0

>  <Molecular Weight>
551.46

>  <#RO5 Violations>
1

>  <AlogP>
3.88

>  <Compound Key>
3226

>  <Standard Type>
pKa_B1

>  <Standard Value>
8.8

>  <Comment>
'B1 Functional Group: Tertiary amine; Ionisation Formula: A1B1 (Functional Group: the part of the molecule the pKa refers to; Ionisation formula: AxBy where 'A' refers to acidic centers within the molecule that are appreciably ionised at a pH <= 11 and 'x' equals 0, 1 or 2; and 'B' refers to basic centers within the molecule that are appreciably ionised at a pH >= 2 and 'y' equals 0, 1, 2 or 3).'

>  <Potential Duplicate>
false

>  <Assay ChEMBL ID>
CHEMBL3301362

>  <Assay Description>
ASTRAZENECA: Most basic pKa value (pKa B1) determined by absorption and potentiometric titration using standard methodology from Sirius Analytical. Experimental range Bases: >= 2.

>  <Assay Type>
P

>  <BAO Format ID>
BAO_0000100

>  <BAO Label>
small-molecule physicochemical format

>  <Target ChEMBL ID>
CHEMBL2362975

>  <Target Name>
No relevant target

>  <Target Type>
NO TARGET

>  <Document ChEMBL ID>
CHEMBL3301361

>  <Source ID>
27

>  <Source Description>
AstraZeneca Deposited Data

>  <Strongest basic pKa>
8.7

>  <deltapKa>
0.09580433843342284

>  <Strongest basic pKa_Taut>
8.7

>  <deltapKa_TAut>
0.09580433843342284

$$$$

  Mrv1920 03272013312D          

 22 23  0  0  0  0            999 V2000
    2.1434   -2.0625    0.0000 C   0  0  0  0  0  0  0  0  0  0  0  0
    2.8579   -1.6500    0.0000 N   0  0  0  0  0  0  0  0  0  0  0  0
    3.5724   -2.0625    0.0000 C   0  0  0  0  0  0  0  0  0  0  0  0
    4.2868   -1.6500    0.0000 C   0  0  0  0  0  0  0  0  0  0  0  0
    5.0013   -2.0625    0.0000 C   0  0  0  0  0  0  0  0  0  0  0  0
    5.7158   -1.6500    0.0000 O   0  0  0  0  0  0  0  0  0  0  0  0
    6.4302   -2.0625    0.0000 C   0  0  0  0  0  0  0  0  0  0  0  0
    7.1447   -1.6500    0.0000 C   0  0  0  0  0  0  0  0  0  0  0  0
    7.8592   -2.0625    0.0000 C   0  0  0  0  0  0  0  0  0  0  0  0
    7.8592   -2.8875    0.0000 C   0  0  0  0  0  0  0  0  0  0  0  0
    8.5737   -3.3000    0.0000 C   0  0  0  0  0  0  0  0  0  0  0  0
    9.2881   -3.7125    0.0000 F   0  0  0  0  0  0  0  0  0  0  0  0
    8.1612   -4.0145    0.0000 F   0  0  0  0  0  0  0  0  0  0  0  0
    8.9862   -2.5855    0.0000 F   0  0  0  0  0  0  0  0  0  0  0  0
    7.1447   -3.3000    0.0000 C   0  0  0  0  0  0  0  0  0  0  0  0
    6.4302   -2.8875    0.0000 C   0  0  0  0  0  0  0  0  0  0  0  0
    5.0013   -2.8875    0.0000 C   0  0  0  0  0  0  0  0  0  0  0  0
    5.7158   -3.3000    0.0000 C   0  0  0  0  0  0  0  0  0  0  0  0
    5.7158   -4.1250    0.0000 C   0  0  0  0  0  0  0  0  0  0  0  0
    5.0013   -4.5375    0.0000 C   0  0  0  0  0  0  0  0  0  0  0  0
    4.2868   -4.1250    0.0000 C   0  0  0  0  0  0  0  0  0  0  0  0
    4.2868   -3.3000    0.0000 C   0  0  0  0  0  0  0  0  0  0  0  0
  1  2  1  0  0  0  0
  2  3  1  0  0  0  0
  3  4  1  0  0  0  0
  4  5  1  0  0  0  0
  5  6  1  0  0  0  0
  6  7  1  0  0  0  0
  7  8  2  0  0  0  0
  8  9  1  0  0  0  0
  9 10  2  0  0  0  0
 10 11  1  0  0  0  0
 11 12  1  0  0  0  0
 11 13  1  0  0  0  0
 11 14  1  0  0  0  0
 10 15  1  0  0  0  0
 15 16  2  0  0  0  0
  7 16  1  0  0  0  0
  5 17  1  0  0  0  0
 17 18  2  0  0  0  0
 18 19  1  0  0  0  0
 19 20  2  0  0  0  0
 20 21  1  0  0  0  0
 21 22  2  0  0  0  0
 17 22  1  0  0  0  0
M  END
>  <StandardizerResult>
Tautomerize


>  <CdId>
161

>  <Mol Weight>
309.33

>  <Formula>
C17H18F3NO

>  <Molecule ChEMBL ID>
CHEMBL41

>  <Molecule Name>
FLUOXETINE

>  <Molecule Max Phase>
4

>  <Molecular Weight>
309.33

>  <#RO5 Violations>
0

>  <AlogP>
4.44

>  <Compound Key>
605

>  <Standard Type>
pKa_B1

>  <Standard Value>
9.9

>  <Comment>
'B1 Functional Group: Secondary amine; Ionisation Formula: A0B1 (Functional Group: the part of the molecule the pKa refers to; Ionisation formula: AxBy where 'A' refers to acidic centers within the molecule that are appreciably ionised at a pH <= 11 and 'x' equals 0, 1 or 2; and 'B' refers to basic centers within the molecule that are appreciably ionised at a pH >= 2 and 'y' equals 0, 1, 2 or 3).'

>  <Potential Duplicate>
false

>  <Assay ChEMBL ID>
CHEMBL3301362

>  <Assay Description>
ASTRAZENECA: Most basic pKa value (pKa B1) determined by absorption and potentiometric titration using standard methodology from Sirius Analytical. Experimental range Bases: >= 2.

>  <Assay Type>
P

>  <BAO Format ID>
BAO_0000100

>  <BAO Label>
small-molecule physicochemical format

>  <Target ChEMBL ID>
CHEMBL2362975

>  <Target Name>
No relevant target

>  <Target Type>
NO TARGET

>  <Document ChEMBL ID>
CHEMBL3301361

>  <Source ID>
27

>  <Source Description>
AstraZeneca Deposited Data

>  <Strongest basic pKa>
9.8

>  <deltapKa>
0.09686055879254951

>  <Strongest basic pKa_Taut>
9.8

>  <deltapKa_TAut>
0.09686055879254951

$$$$

  Mrv1920 03272013312D          

 21 22  0  0  1  0            999 V2000
    2.8579   -0.8250    0.0000 C   0  0  0  0  0  0  0  0  0  0  0  0
    2.8579   -1.6500    0.0000 N   0  0  0  0  0  0  0  0  0  0  0  0
    3.5724   -2.0625    0.0000 C   0  0  0  0  0  0  0  0  0  0  0  0
    4.2868   -1.6500    0.0000 C   0  0  0  0  0  0  0  0  0  0  0  0
    5.0013   -2.0625    0.0000 C   0  0  1  0  0  0  0  0  0  0  0  0
    5.7158   -1.6500    0.0000 O   0  0  0  0  0  0  0  0  0  0  0  0
    6.4302   -2.0625    0.0000 C   0  0  0  0  0  0  0  0  0  0  0  0
    6.4302   -2.8875    0.0000 C   0  0  0  0  0  0  0  0  0  0  0  0
    7.1447   -3.3000    0.0000 C   0  0  0  0  0  0  0  0  0  0  0  0
    7.1447   -4.1250    0.0000 Cl  0  0  0  0  0  0  0  0  0  0  0  0
    7.8592   -2.8875    0.0000 C   0  0  0  0  0  0  0  0  0  0  0  0
    7.8592   -2.0625    0.0000 C   0  0  0  0  0  0  0  0  0  0  0  0
    7.1447   -1.6500    0.0000 C   0  0  0  0  0  0  0  0  0  0  0  0
    7.1447   -0.8250    0.0000 C   0  0  0  0  0  0  0  0  0  0  0  0
    7.1447    0.0000    0.0000 N   0  0  0  0  0  0  0  0  0  0  0  0
    5.0013   -2.8875    0.0000 C   0  0  0  0  0  0  0  0  0  0  0  0
    5.7158   -3.3000    0.0000 C   0  0  0  0  0  0  0  0  0  0  0  0
    5.7158   -4.1250    0.0000 C   0  0  0  0  0  0  0  0  0  0  0  0
    5.0013   -4.5375    0.0000 C   0  0  0  0  0  0  0  0  0  0  0  0
    4.2868   -4.1250    0.0000 C   0  0  0  0  0  0  0  0  0  0  0  0
    4.2868   -3.3000    0.0000 C   0  0  0  0  0  0  0  0  0  0  0  0
  1  2  1  0  0  0  0
  2  3  1  0  0  0  0
  3  4  1  0  0  0  0
  5  4  1  0  0  0  0
  5  6  1  1  0  0  0
  6  7  1  0  0  0  0
  7  8  2  0  0  0  0
  8  9  1  0  0  0  0
  9 10  1  0  0  0  0
  9 11  2  0  0  0  0
 11 12  1  0  0  0  0
 12 13  2  0  0  0  0
  7 13  1  0  0  0  0
 13 14  1  0  0  0  0
 14 15  3  0  0  0  0
  5 16  1  0  0  0  0
 16 17  2  0  0  0  0
 17 18  1  0  0  0  0
 18 19  2  0  0  0  0
 19 20  1  0  0  0  0
 20 21  2  0  0  0  0
 16 21  1  0  0  0  0
M  END
>  <StandardizerResult>
Tautomerize


>  <CdId>
43

>  <Mol Weight>
300.79

>  <Formula>
C17H17ClN2O

>  <Molecule ChEMBL ID>
CHEMBL1789178

>  <Molecule Max Phase>
0

>  <Molecular Weight>
300.79

>  <#RO5 Violations>
0

>  <AlogP>
3.94

>  <Compound Key>
2617

>  <Standard Type>
pKa_B1

>  <Standard Value>
9.9

>  <Comment>
'B1 Functional Group: Secondary amine; Ionisation Formula: A0B1 (Functional Group: the part of the molecule the pKa refers to; Ionisation formula: AxBy where 'A' refers to acidic centers within the molecule that are appreciably ionised at a pH <= 11 and 'x' equals 0, 1 or 2; and 'B' refers to basic centers within the molecule that are appreciably ionised at a pH >= 2 and 'y' equals 0, 1, 2 or 3).'

>  <Potential Duplicate>
false

>  <Assay ChEMBL ID>
CHEMBL3301362

>  <Assay Description>
ASTRAZENECA: Most basic pKa value (pKa B1) determined by absorption and potentiometric titration using standard methodology from Sirius Analytical. Experimental range Bases: >= 2.

>  <Assay Type>
P

>  <BAO Format ID>
BAO_0000100

>  <BAO Label>
small-molecule physicochemical format

>  <Target ChEMBL ID>
CHEMBL2362975

>  <Target Name>
No relevant target

>  <Target Type>
NO TARGET

>  <Document ChEMBL ID>
CHEMBL3301361

>  <Source ID>
27

>  <Source Description>
AstraZeneca Deposited Data

>  <Strongest basic pKa>
9.8

>  <deltapKa>
0.09686146071425128

>  <Strongest basic pKa_Taut>
9.8

>  <deltapKa_TAut>
0.09686146071425128

$$$$

  Mrv1920 03272013312D          

 36 40  0  0  0  0            999 V2000
   -0.7145   -0.4125    0.0000 C   0  0  0  0  0  0  0  0  0  0  0  0
    0.0000    0.0000    0.0000 O   0  0  0  0  0  0  0  0  0  0  0  0
    0.7145   -0.4125    0.0000 C   0  0  0  0  0  0  0  0  0  0  0  0
    1.4289    0.0000    0.0000 C   0  0  0  0  0  0  0  0  0  0  0  0
    2.1434   -0.4125    0.0000 C   0  0  0  0  0  0  0  0  0  0  0  0
    2.8579    0.0000    0.0000 N   0  0  0  0  0  0  0  0  0  0  0  0
    3.5724   -0.4125    0.0000 C   0  0  0  0  0  0  0  0  0  0  0  0
    4.2868    0.0000    0.0000 C   0  0  0  0  0  0  0  0  0  0  0  0
    4.2868    0.8250    0.0000 C   0  0  0  0  0  0  0  0  0  0  0  0
    5.0013    1.2375    0.0000 C   0  0  0  0  0  0  0  0  0  0  0  0
    5.7158    0.8250    0.0000 C   0  0  0  0  0  0  0  0  0  0  0  0
    6.4302    1.2375    0.0000 N   0  0  0  0  0  0  0  0  0  0  0  0
    6.4302    2.0625    0.0000 C   0  0  0  0  0  0  0  0  0  0  0  0
    7.1447    2.4750    0.0000 C   0  0  0  0  0  0  0  0  0  0  0  0
    7.8592    2.0625    0.0000 N   0  0  0  0  0  0  0  0  0  0  0  0
    8.5737    2.4750    0.0000 C   0  0  0  0  0  0  0  0  0  0  0  0
    7.8592    1.2375    0.0000 C   0  0  0  0  0  0  0  0  0  0  0  0
    7.1447    0.8250    0.0000 C   0  0  0  0  0  0  0  0  0  0  0  0
    5.7158    0.0000    0.0000 C   0  0  0  0  0  0  0  0  0  0  0  0
    5.0013   -0.4125    0.0000 C   0  0  0  0  0  0  0  0  0  0  0  0
    3.5724   -1.2375    0.0000 N   0  0  0  0  0  0  0  0  0  0  0  0
    2.8579   -1.6500    0.0000 C   0  0  0  0  0  0  0  0  0  0  0  0
    2.8579   -2.4750    0.0000 N   0  0  0  0  0  0  0  0  0  0  0  0
    2.1434   -2.8875    0.0000 C   0  0  0  0  0  0  0  0  0  0  0  0
    2.1434   -3.7125    0.0000 C   0  0  0  0  0  0  0  0  0  0  0  0
    1.4289   -4.1250    0.0000 N   0  0  0  0  0  0  0  0  0  0  0  0
    1.4289   -4.9500    0.0000 C   0  0  0  0  0  0  0  0  0  0  0  0
    0.7145   -5.3625    0.0000 C   0  0  0  0  0  0  0  0  0  0  0  0
    0.0000   -4.9500    0.0000 O   0  0  0  0  0  0  0  0  0  0  0  0
    0.0000   -4.1250    0.0000 C   0  0  0  0  0  0  0  0  0  0  0  0
    0.7145   -3.7125    0.0000 C   0  0  0  0  0  0  0  0  0  0  0  0
    2.1434   -1.2375    0.0000 C   0  0  0  0  0  0  0  0  0  0  0  0
    1.4289   -1.6500    0.0000 C   0  0  0  0  0  0  0  0  0  0  0  0
    0.7145   -1.2375    0.0000 C   0  0  0  0  0  0  0  0  0  0  0  0
    0.0000   -1.6500    0.0000 O   0  0  0  0  0  0  0  0  0  0  0  0
   -0.7145   -1.2375    0.0000 C   0  0  0  0  0  0  0  0  0  0  0  0
  1  2  1  0  0  0  0
  2  3  1  0  0  0  0
  3  4  2  0  0  0  0
  4  5  1  0  0  0  0
  5  6  2  0  0  0  0
  6  7  1  0  0  0  0
  7  8  1  0  0  0  0
  8  9  2  0  0  0  0
  9 10  1  0  0  0  0
 10 11  2  0  0  0  0
 11 12  1  0  0  0  0
 12 13  1  0  0  0  0
 13 14  1  0  0  0  0
 14 15  1  0  0  0  0
 15 16  1  0  0  0  0
 15 17  1  0  0  0  0
 17 18  1  0  0  0  0
 12 18  1  0  0  0  0
 11 19  1  0  0  0  0
 19 20  2  0  0  0  0
  8 20  1  0  0  0  0
  7 21  2  0  0  0  0
 21 22  1  0  0  0  0
 22 23  1  0  0  0  0
 23 24  1  0  0  0  0
 24 25  1  0  0  0  0
 25 26  1  0  0  0  0
 26 27  1  0  0  0  0
 27 28  1  0  0  0  0
 28 29  1  0  0  0  0
 29 30  1  0  0  0  0
 30 31  1  0  0  0  0
 26 31  1  0  0  0  0
 22 32  2  0  0  0  0
  5 32  1  0  0  0  0
 32 33  1  0  0  0  0
 33 34  2  0  0  0  0
  3 34  1  0  0  0  0
 34 35  1  0  0  0  0
 35 36  1  0  0  0  0
M  END
>  <StandardizerResult>
Tautomerize


>  <CdId>
145

>  <Mol Weight>
492.62

>  <Formula>
C27H36N6O3

>  <Molecule ChEMBL ID>
CHEMBL2144205

>  <Molecule Max Phase>
0

>  <Molecular Weight>
492.62

>  <#RO5 Violations>
0

>  <AlogP>
2.81

>  <Compound Key>
5220

>  <Standard Type>
pKa_B1

>  <Standard Value>
7.93

>  <Comment>
'B1 Functional Group: Piperazine; Ionisation Formula: A0B3 (Functional Group: the part of the molecule the pKa refers to; Ionisation formula: AxBy where 'A' refers to acidic centers within the molecule that are appreciably ionised at a pH <= 11 and 'x' equals 0, 1 or 2; and 'B' refers to basic centers within the molecule that are appreciably ionised at a pH >= 2 and 'y' equals 0, 1, 2 or 3).'

>  <Potential Duplicate>
false

>  <Assay ChEMBL ID>
CHEMBL3301362

>  <Assay Description>
ASTRAZENECA: Most basic pKa value (pKa B1) determined by absorption and potentiometric titration using standard methodology from Sirius Analytical. Experimental range Bases: >= 2.

>  <Assay Type>
P

>  <BAO Format ID>
BAO_0000100

>  <BAO Label>
small-molecule physicochemical format

>  <Target ChEMBL ID>
CHEMBL2362975

>  <Target Name>
No relevant target

>  <Target Type>
NO TARGET

>  <Document ChEMBL ID>
CHEMBL3301361

>  <Source ID>
27

>  <Source Description>
AstraZeneca Deposited Data

>  <Strongest basic pKa>
7.82

>  <deltapKa>
0.10662288911125906

>  <Strongest basic pKa_Taut>
7.82

>  <deltapKa_TAut>
0.10662288911125906

$$$$

  Mrv1920 03272013312D          

 34 38  0  0  1  0            999 V2000
   -2.8579   -2.4750    0.0000 O   0  0  0  0  0  0  0  0  0  0  0  0
   -2.1434   -2.8875    0.0000 C   0  0  0  0  0  0  0  0  0  0  0  0
   -2.1434   -3.7125    0.0000 C   0  0  1  0  0  0  0  0  0  0  0  0
   -1.4289   -4.1250    0.0000 C   0  0  0  0  0  0  0  0  0  0  0  0
   -1.4289   -4.9500    0.0000 C   0  0  0  0  0  0  0  0  0  0  0  0
   -2.1434   -5.3625    0.0000 C   0  0  0  0  0  0  0  0  0  0  0  0
   -2.8579   -4.9500    0.0000 C   0  0  0  0  0  0  0  0  0  0  0  0
   -2.8579   -4.1250    0.0000 N   0  0  0  0  0  0  0  0  0  0  0  0
   -1.4289   -2.4750    0.0000 N   0  0  0  0  0  0  0  0  0  0  0  0
   -1.4289   -1.6500    0.0000 C   0  0  0  0  0  0  0  0  0  0  0  0
   -0.7145   -1.2375    0.0000 C   0  0  0  0  0  0  0  0  0  0  0  0
    0.0000   -1.6500    0.0000 N   0  0  0  0  0  0  0  0  0  0  0  0
    0.7145   -1.2375    0.0000 C   0  0  0  0  0  0  0  0  0  0  0  0
    0.7145   -0.4125    0.0000 N   0  0  0  0  0  0  0  0  0  0  0  0
    1.4289    0.0000    0.0000 C   0  0  0  0  0  0  0  0  0  0  0  0
    1.4289    0.8250    0.0000 N   0  0  0  0  0  0  0  0  0  0  0  0
    0.7145    1.2375    0.0000 C   0  0  0  0  0  0  0  0  0  0  0  0
    0.7145    2.0625    0.0000 C   0  0  0  0  0  0  0  0  0  0  0  0
    0.0000    2.4750    0.0000 C   0  0  0  0  0  0  0  0  0  0  0  0
    0.0000    3.3000    0.0000 C   0  0  0  0  0  0  0  0  0  0  0  0
    0.7145    3.7125    0.0000 C   0  0  0  0  0  0  0  0  0  0  0  0
    0.7145    4.5375    0.0000 Cl  0  0  0  0  0  0  0  0  0  0  0  0
    1.4289    3.3000    0.0000 C   0  0  0  0  0  0  0  0  0  0  0  0
    1.4289    2.4750    0.0000 C   0  0  0  0  0  0  0  0  0  0  0  0
    2.1434    2.0625    0.0000 Cl  0  0  0  0  0  0  0  0  0  0  0  0
    2.1434   -0.4125    0.0000 C   0  0  0  0  0  0  0  0  0  0  0  0
    2.8579    0.0000    0.0000 C   0  0  0  0  0  0  0  0  0  0  0  0
    3.5724   -0.4125    0.0000 C   0  0  0  0  0  0  0  0  0  0  0  0
    3.5724   -1.2375    0.0000 C   0  0  0  0  0  0  0  0  0  0  0  0
    2.8579   -1.6500    0.0000 N   0  0  0  0  0  0  0  0  0  0  0  0
    2.1434   -1.2375    0.0000 C   0  0  0  0  0  0  0  0  0  0  0  0
    1.4289   -1.6500    0.0000 N   0  0  0  0  0  0  0  0  0  0  0  0
    0.0000   -2.4750    0.0000 C   0  0  0  0  0  0  0  0  0  0  0  0
   -0.7145   -2.8875    0.0000 C   0  0  0  0  0  0  0  0  0  0  0  0
  1  2  2  0  0  0  0
  3  2  1  1  0  0  0
  3  4  1  0  0  0  0
  4  5  1  0  0  0  0
  5  6  1  0  0  0  0
  6  7  1  0  0  0  0
  7  8  1  0  0  0  0
  3  8  1  0  0  0  0
  2  9  1  0  0  0  0
  9 10  1  0  0  0  0
 10 11  1  0  0  0  0
 11 12  1  0  0  0  0
 12 13  1  0  0  0  0
 13 14  1  0  0  0  0
 14 15  2  0  0  0  0
 15 16  1  0  0  0  0
 16 17  1  0  0  0  0
 17 18  1  0  0  0  0
 18 19  2  0  0  0  0
 19 20  1  0  0  0  0
 20 21  2  0  0  0  0
 21 22  1  0  0  0  0
 21 23  1  0  0  0  0
 23 24  2  0  0  0  0
 18 24  1  0  0  0  0
 24 25  1  0  0  0  0
 15 26  1  0  0  0  0
 26 27  2  0  0  0  0
 27 28  1  0  0  0  0
 28 29  2  0  0  0  0
 29 30  1  0  0  0  0
 30 31  2  0  0  0  0
 26 31  1  0  0  0  0
 31 32  1  0  0  0  0
 13 32  2  0  0  0  0
 12 33  1  0  0  0  0
 33 34  1  0  0  0  0
  9 34  1  0  0  0  0
M  END
>  <StandardizerResult>
Tautomerize


>  <CdId>
118

>  <Mol Weight>
500.43

>  <Formula>
C24H27Cl2N7O

>  <Molecule ChEMBL ID>
CHEMBL2018953

>  <Molecule Max Phase>
0

>  <Molecular Weight>
500.43

>  <#RO5 Violations>
1

>  <AlogP>
3.73

>  <Compound Key>
3317

>  <Standard Type>
pKa_B1

>  <Standard Value>
9.0

>  <Comment>
'B1 Functional Group: Piperidine; Ionisation Formula: A0B2 (Functional Group: the part of the molecule the pKa refers to; Ionisation formula: AxBy where 'A' refers to acidic centers within the molecule that are appreciably ionised at a pH <= 11 and 'x' equals 0, 1 or 2; and 'B' refers to basic centers within the molecule that are appreciably ionised at a pH >= 2 and 'y' equals 0, 1, 2 or 3).'

>  <Potential Duplicate>
false

>  <Assay ChEMBL ID>
CHEMBL3301362

>  <Assay Description>
ASTRAZENECA: Most basic pKa value (pKa B1) determined by absorption and potentiometric titration using standard methodology from Sirius Analytical. Experimental range Bases: >= 2.

>  <Assay Type>
P

>  <BAO Format ID>
BAO_0000100

>  <BAO Label>
small-molecule physicochemical format

>  <Target ChEMBL ID>
CHEMBL2362975

>  <Target Name>
No relevant target

>  <Target Type>
NO TARGET

>  <Document ChEMBL ID>
CHEMBL3301361

>  <Source ID>
27

>  <Source Description>
AstraZeneca Deposited Data

>  <Strongest basic pKa>
8.89

>  <deltapKa>
0.10726501878890637

>  <Strongest basic pKa_Taut>
8.89

>  <deltapKa_TAut>
0.10726501878890637

$$$$

  Mrv1920 03272013312D          

 16 18  0  0  0  0            999 V2000
    0.7145   -1.2375    0.0000 C   0  0  0  0  0  0  0  0  0  0  0  0
    0.7145   -0.4125    0.0000 C   0  0  0  0  0  0  0  0  0  0  0  0
    1.4289    0.0000    0.0000 C   0  0  0  0  0  0  0  0  0  0  0  0
    2.1434   -0.4125    0.0000 C   0  0  0  0  0  0  0  0  0  0  0  0
    2.8579    0.0000    0.0000 C   0  0  0  0  0  0  0  0  0  0  0  0
    2.8579    0.8250    0.0000 C   0  0  0  0  0  0  0  0  0  0  0  0
    3.5724    1.2375    0.0000 C   0  0  0  0  0  0  0  0  0  0  0  0
    3.6586    2.0580    0.0000 N   0  0  0  0  0  0  0  0  0  0  0  0
    4.4656    2.2295    0.0000 C   0  0  0  0  0  0  0  0  0  0  0  0
    4.8781    1.5150    0.0000 C   0  0  0  0  0  0  0  0  0  0  0  0
    4.3260    0.9019    0.0000 N   0  0  0  0  0  0  0  0  0  0  0  0
    3.5724   -0.4125    0.0000 C   0  0  0  0  0  0  0  0  0  0  0  0
    3.5724   -1.2375    0.0000 C   0  0  0  0  0  0  0  0  0  0  0  0
    2.8579   -1.6500    0.0000 C   0  0  0  0  0  0  0  0  0  0  0  0
    2.1434   -1.2375    0.0000 C   0  0  0  0  0  0  0  0  0  0  0  0
    1.4289   -1.6500    0.0000 C   0  0  0  0  0  0  0  0  0  0  0  0
  1  2  1  0  0  0  0
  2  3  2  0  0  0  0
  3  4  1  0  0  0  0
  4  5  2  0  0  0  0
  5  6  1  0  0  0  0
  6  7  1  0  0  0  0
  7  8  2  0  0  0  0
  8  9  1  0  0  0  0
  9 10  1  0  0  0  0
 10 11  1  0  0  0  0
  7 11  1  0  0  0  0
  5 12  1  0  0  0  0
 12 13  2  0  0  0  0
 13 14  1  0  0  0  0
 14 15  2  0  0  0  0
  4 15  1  0  0  0  0
 15 16  1  0  0  0  0
  1 16  2  0  0  0  0
M  END
>  <StandardizerResult>
Tautomerize


>  <CdId>
162

>  <Mol Weight>
210.28

>  <Formula>
C14H14N2

>  <Molecule ChEMBL ID>
CHEMBL761

>  <Molecule Name>
NAPHAZOLINE

>  <Molecule Max Phase>
4

>  <Molecular Weight>
210.28

>  <#RO5 Violations>
0

>  <AlogP>
2.38

>  <Compound Key>
714

>  <Standard Type>
pKa_B1

>  <Standard Value>
10.3

>  <Comment>
'B1 Functional Group: 1H-imidazole, 4,5-dihydro-; Ionisation Formula: A0B1 (Functional Group: the part of the molecule the pKa refers to; Ionisation formula: AxBy where 'A' refers to acidic centers within the molecule that are appreciably ionised at a pH <= 11 and 'x' equals 0, 1 or 2; and 'B' refers to basic centers within the molecule that are appreciably ionised at a pH >= 2 and 'y' equals 0, 1, 2 or 3).'

>  <Potential Duplicate>
false

>  <Assay ChEMBL ID>
CHEMBL3301362

>  <Assay Description>
ASTRAZENECA: Most basic pKa value (pKa B1) determined by absorption and potentiometric titration using standard methodology from Sirius Analytical. Experimental range Bases: >= 2.

>  <Assay Type>
P

>  <BAO Format ID>
BAO_0000100

>  <BAO Label>
small-molecule physicochemical format

>  <Target ChEMBL ID>
CHEMBL2362975

>  <Target Name>
No relevant target

>  <Target Type>
NO TARGET

>  <Document ChEMBL ID>
CHEMBL3301361

>  <Source ID>
27

>  <Source Description>
AstraZeneca Deposited Data

>  <Strongest basic pKa>
10.19

>  <deltapKa>
0.10907319179864494

>  <Strongest basic pKa_Taut>
10.19

>  <deltapKa_TAut>
0.10907319179864494

$$$$

  Mrv1920 03272013312D          

 18 18  0  0  0  0            999 V2000
   -0.7145   -3.7125    0.0000 N   0  0  0  0  0  0  0  0  0  0  0  0
   -0.7145   -2.8875    0.0000 C   0  0  0  0  0  0  0  0  0  0  0  0
   -1.4289   -2.4750    0.0000 N   0  0  0  0  0  0  0  0  0  0  0  0
    0.0000   -2.4750    0.0000 S   0  0  0  0  0  0  0  0  0  0  0  0
    0.0000   -1.6500    0.0000 C   0  0  0  0  0  0  0  0  0  0  0  0
    0.7145   -1.2375    0.0000 C   0  0  0  0  0  0  0  0  0  0  0  0
    0.7145   -0.4125    0.0000 C   0  0  0  0  0  0  0  0  0  0  0  0
    0.0000    0.0000    0.0000 C   0  0  0  0  0  0  0  0  0  0  0  0
    0.0000    0.8250    0.0000 C   0  0  0  0  0  0  0  0  0  0  0  0
    0.7145    1.2375    0.0000 C   0  0  0  0  0  0  0  0  0  0  0  0
    1.4289    0.8250    0.0000 C   0  0  0  0  0  0  0  0  0  0  0  0
    2.1434    1.2375    0.0000 C   0  0  0  0  0  0  0  0  0  0  0  0
    2.8579    0.8250    0.0000 C   0  0  0  0  0  0  0  0  0  0  0  0
    3.5724    1.2375    0.0000 S   0  0  0  0  0  0  0  0  0  0  0  0
    4.2868    0.8250    0.0000 C   0  0  0  0  0  0  0  0  0  0  0  0
    5.0013    1.2375    0.0000 N   0  0  0  0  0  0  0  0  0  0  0  0
    4.2868    0.0000    0.0000 N   0  0  0  0  0  0  0  0  0  0  0  0
    1.4289    0.0000    0.0000 C   0  0  0  0  0  0  0  0  0  0  0  0
  1  2  2  0  0  0  0
  2  3  1  0  0  0  0
  2  4  1  0  0  0  0
  4  5  1  0  0  0  0
  5  6  1  0  0  0  0
  6  7  1  0  0  0  0
  7  8  2  0  0  0  0
  8  9  1  0  0  0  0
  9 10  2  0  0  0  0
 10 11  1  0  0  0  0
 11 12  1  0  0  0  0
 12 13  1  0  0  0  0
 13 14  1  0  0  0  0
 14 15  1  0  0  0  0
 15 16  2  0  0  0  0
 15 17  1  0  0  0  0
 11 18  2  0  0  0  0
  7 18  1  0  0  0  0
M  END
>  <StandardizerResult>
Tautomerize


>  <CdId>
148

>  <Mol Weight>
282.42

>  <Formula>
C12H18N4S2

>  <Molecule ChEMBL ID>
CHEMBL107201

>  <Molecule Max Phase>
0

>  <Molecular Weight>
282.44

>  <#RO5 Violations>
0

>  <AlogP>
2.02

>  <Compound Key>
1529

>  <Standard Type>
pKa_B1

>  <Standard Value>
11.0

>  <Comment>
'B1 Functional Group: Carbamimidothioate; Ionisation Formula: A0B2 (Functional Group: the part of the molecule the pKa refers to; Ionisation formula: AxBy where 'A' refers to acidic centers within the molecule that are appreciably ionised at a pH <= 11 and 'x' equals 0, 1 or 2; and 'B' refers to basic centers within the molecule that are appreciably ionised at a pH >= 2 and 'y' equals 0, 1, 2 or 3).'

>  <Potential Duplicate>
false

>  <Assay ChEMBL ID>
CHEMBL3301362

>  <Assay Description>
ASTRAZENECA: Most basic pKa value (pKa B1) determined by absorption and potentiometric titration using standard methodology from Sirius Analytical. Experimental range Bases: >= 2.

>  <Assay Type>
P

>  <BAO Format ID>
BAO_0000100

>  <BAO Label>
small-molecule physicochemical format

>  <Target ChEMBL ID>
CHEMBL2362975

>  <Target Name>
No relevant target

>  <Target Type>
NO TARGET

>  <Document ChEMBL ID>
CHEMBL3301361

>  <Source ID>
27

>  <Source Description>
AstraZeneca Deposited Data

>  <Strongest basic pKa>
10.89

>  <deltapKa>
0.11431826306112569

>  <Strongest basic pKa_Taut>
10.89

>  <deltapKa_TAut>
0.11431826306112569

$$$$

  Mrv1920 03272013312D          

 16 16  0  0  0  0            999 V2000
   -0.7145    2.0625    0.0000 C   0  0  0  0  0  0  0  0  0  0  0  0
    0.0000    2.4750    0.0000 C   0  0  0  0  0  0  0  0  0  0  0  0
    0.0000    3.3000    0.0000 N   0  0  0  0  0  0  0  0  0  0  0  0
   -0.7145    3.7125    0.0000 C   0  0  0  0  0  0  0  0  0  0  0  0
   -1.4289    4.1250    0.0000 C   0  0  0  0  0  0  0  0  0  0  0  0
   -1.1270    2.9980    0.0000 C   0  0  0  0  0  0  0  0  0  0  0  0
   -0.3020    4.4270    0.0000 C   0  0  0  0  0  0  0  0  0  0  0  0
    0.7145    2.0625    0.0000 C   0  0  0  0  0  0  0  0  0  0  0  0
    1.4289    2.4750    0.0000 O   0  0  0  0  0  0  0  0  0  0  0  0
    0.7145    1.2375    0.0000 C   0  0  0  0  0  0  0  0  0  0  0  0
    1.4289    0.8250    0.0000 C   0  0  0  0  0  0  0  0  0  0  0  0
    1.4289    0.0000    0.0000 C   0  0  0  0  0  0  0  0  0  0  0  0
    0.7145   -0.4125    0.0000 C   0  0  0  0  0  0  0  0  0  0  0  0
    0.0000    0.0000    0.0000 C   0  0  0  0  0  0  0  0  0  0  0  0
   -0.7145   -0.4125    0.0000 Cl  0  0  0  0  0  0  0  0  0  0  0  0
    0.0000    0.8250    0.0000 C   0  0  0  0  0  0  0  0  0  0  0  0
  1  2  1  0  0  0  0
  2  3  1  0  0  0  0
  3  4  1  0  0  0  0
  4  5  1  0  0  0  0
  4  6  1  0  0  0  0
  4  7  1  0  0  0  0
  2  8  1  0  0  0  0
  8  9  2  0  0  0  0
  8 10  1  0  0  0  0
 10 11  2  0  0  0  0
 11 12  1  0  0  0  0
 12 13  2  0  0  0  0
 13 14  1  0  0  0  0
 14 15  1  0  0  0  0
 14 16  2  0  0  0  0
 10 16  1  0  0  0  0
M  END
>  <StandardizerResult>
Tautomerize


>  <CdId>
132

>  <Mol Weight>
239.74

>  <Formula>
C13H18ClNO

>  <Molecule ChEMBL ID>
CHEMBL894

>  <Molecule Name>
BUPROPION

>  <Molecule Max Phase>
4

>  <Molecular Weight>
239.75

>  <#RO5 Violations>
0

>  <AlogP>
3.3

>  <Compound Key>
1609

>  <Standard Type>
pKa_B1

>  <Standard Value>
8.4

>  <Comment>
'B1 Functional Group: Secondary amine; Ionisation Formula: A0B1 (Functional Group: the part of the molecule the pKa refers to; Ionisation formula: AxBy where 'A' refers to acidic centers within the molecule that are appreciably ionised at a pH <= 11 and 'x' equals 0, 1 or 2; and 'B' refers to basic centers within the molecule that are appreciably ionised at a pH >= 2 and 'y' equals 0, 1, 2 or 3).'

>  <Potential Duplicate>
false

>  <Assay ChEMBL ID>
CHEMBL3301362

>  <Assay Description>
ASTRAZENECA: Most basic pKa value (pKa B1) determined by absorption and potentiometric titration using standard methodology from Sirius Analytical. Experimental range Bases: >= 2.

>  <Assay Type>
P

>  <BAO Format ID>
BAO_0000100

>  <BAO Label>
small-molecule physicochemical format

>  <Target ChEMBL ID>
CHEMBL2362975

>  <Target Name>
No relevant target

>  <Target Type>
NO TARGET

>  <Document ChEMBL ID>
CHEMBL3301361

>  <Source ID>
27

>  <Source Description>
AstraZeneca Deposited Data

>  <Strongest basic pKa>
8.22

>  <deltapKa>
0.18422039033033677

>  <Strongest basic pKa_Taut>
8.22

>  <deltapKa_TAut>
0.18422039033033677

$$$$

  Mrv1920 03272013312D          

 23 23  0  0  0  0            999 V2000
   -4.2868   -2.4750    0.0000 C   0  0  0  0  0  0  0  0  0  0  0  0
   -3.5724   -2.0625    0.0000 C   0  0  0  0  0  0  0  0  0  0  0  0
   -2.8579   -2.4750    0.0000 C   0  0  0  0  0  0  0  0  0  0  0  0
   -3.5724   -1.2375    0.0000 N   0  0  0  0  0  0  0  0  0  0  0  0
   -2.8579   -0.8250    0.0000 C   0  0  0  0  0  0  0  0  0  0  0  0
   -2.8579    0.0000    0.0000 C   0  0  0  0  0  0  0  0  0  0  0  0
   -3.5724    0.4125    0.0000 O   0  0  0  0  0  0  0  0  0  0  0  0
   -2.1434    0.4125    0.0000 C   0  0  0  0  0  0  0  0  0  0  0  0
   -2.1434    1.2375    0.0000 O   0  0  0  0  0  0  0  0  0  0  0  0
   -1.4289    1.6500    0.0000 C   0  0  0  0  0  0  0  0  0  0  0  0
   -1.4289    2.4750    0.0000 C   0  0  0  0  0  0  0  0  0  0  0  0
   -0.7145    2.8875    0.0000 C   0  0  0  0  0  0  0  0  0  0  0  0
    0.0000    2.4750    0.0000 C   0  0  0  0  0  0  0  0  0  0  0  0
    0.7145    2.8875    0.0000 C   0  0  0  0  0  0  0  0  0  0  0  0
    1.4289    2.4750    0.0000 O   0  0  0  0  0  0  0  0  0  0  0  0
    2.1434    2.8875    0.0000 C   0  0  0  0  0  0  0  0  0  0  0  0
    2.8579    2.4750    0.0000 C   0  0  0  0  0  0  0  0  0  0  0  0
    3.5724    2.8875    0.0000 O   0  0  0  0  0  0  0  0  0  0  0  0
    4.2868    2.4750    0.0000 C   0  0  0  0  0  0  0  0  0  0  0  0
    5.0013    2.8875    0.0000 C   0  0  0  0  0  0  0  0  0  0  0  0
    4.2868    1.6500    0.0000 C   0  0  0  0  0  0  0  0  0  0  0  0
    0.0000    1.6500    0.0000 C   0  0  0  0  0  0  0  0  0  0  0  0
   -0.7145    1.2375    0.0000 C   0  0  0  0  0  0  0  0  0  0  0  0
  1  2  1  0  0  0  0
  2  3  1  0  0  0  0
  2  4  1  0  0  0  0
  4  5  1  0  0  0  0
  5  6  1  0  0  0  0
  6  7  1  0  0  0  0
  6  8  1  0  0  0  0
  8  9  1  0  0  0  0
  9 10  1  0  0  0  0
 10 11  2  0  0  0  0
 11 12  1  0  0  0  0
 12 13  2  0  0  0  0
 13 14  1  0  0  0  0
 14 15  1  0  0  0  0
 15 16  1  0  0  0  0
 16 17  1  0  0  0  0
 17 18  1  0  0  0  0
 18 19  1  0  0  0  0
 19 20  1  0  0  0  0
 19 21  1  0  0  0  0
 13 22  1  0  0  0  0
 22 23  2  0  0  0  0
 10 23  1  0  0  0  0
M  END
>  <StandardizerResult>
Tautomerize


>  <CdId>
160

>  <Mol Weight>
325.45

>  <Formula>
C18H31NO4

>  <Molecule ChEMBL ID>
CHEMBL645

>  <Molecule Name>
BISOPROLOL

>  <Molecule Max Phase>
4

>  <Molecular Weight>
325.45

>  <#RO5 Violations>
0

>  <AlogP>
2.37

>  <Compound Key>
1723

>  <Standard Type>
pKa_B1

>  <Standard Value>
9.87

>  <Comment>
'B1 Functional Group: Secondary amine; Ionisation Formula: A0B1 (Functional Group: the part of the molecule the pKa refers to; Ionisation formula: AxBy where 'A' refers to acidic centers within the molecule that are appreciably ionised at a pH <= 11 and 'x' equals 0, 1 or 2; and 'B' refers to basic centers within the molecule that are appreciably ionised at a pH >= 2 and 'y' equals 0, 1, 2 or 3).'

>  <Potential Duplicate>
false

>  <Assay ChEMBL ID>
CHEMBL3301362

>  <Assay Description>
ASTRAZENECA: Most basic pKa value (pKa B1) determined by absorption and potentiometric titration using standard methodology from Sirius Analytical. Experimental range Bases: >= 2.

>  <Assay Type>
P

>  <BAO Format ID>
BAO_0000100

>  <BAO Label>
small-molecule physicochemical format

>  <Target ChEMBL ID>
CHEMBL2362975

>  <Target Name>
No relevant target

>  <Target Type>
NO TARGET

>  <Document ChEMBL ID>
CHEMBL3301361

>  <Source ID>
27

>  <Source Description>
AstraZeneca Deposited Data

>  <Strongest basic pKa>
9.67

>  <deltapKa>
0.20383339429159442

>  <Strongest basic pKa_Taut>
9.67

>  <deltapKa_TAut>
0.20383339429159442

$$$$

  Mrv1920 03272013312D          

 19 21  0  0  0  0            999 V2000
    0.8838   -2.1500    0.0000 C   0  0  0  0  0  0  0  0  0  0  0  0
    1.1387   -1.3654    0.0000 N   0  0  0  0  0  0  0  0  0  0  0  0
    0.6538   -0.6979    0.0000 C   0  0  0  0  0  0  0  0  0  0  0  0
   -0.1712   -0.6979    0.0000 S   0  0  0  0  0  0  0  0  0  0  0  0
   -0.5837    0.0165    0.0000 O   0  0  0  0  0  0  0  0  0  0  0  0
   -0.5837   -1.4124    0.0000 C   0  0  0  0  0  0  0  0  0  0  0  0
   -1.4087   -1.4124    0.0000 C   0  0  0  0  0  0  0  0  0  0  0  0
   -1.8212   -2.1269    0.0000 C   0  0  0  0  0  0  0  0  0  0  0  0
   -2.6462   -2.1269    0.0000 C   0  0  0  0  0  0  0  0  0  0  0  0
   -3.0587   -1.4124    0.0000 C   0  0  0  0  0  0  0  0  0  0  0  0
   -2.6462   -0.6979    0.0000 C   0  0  0  0  0  0  0  0  0  0  0  0
   -1.8212   -0.6979    0.0000 N   0  0  0  0  0  0  0  0  0  0  0  0
    1.1387   -0.0305    0.0000 N   0  0  0  0  0  0  0  0  0  0  0  0
    1.9233   -0.2854    0.0000 C   0  0  0  0  0  0  0  0  0  0  0  0
    2.6378    0.1271    0.0000 C   0  0  0  0  0  0  0  0  0  0  0  0
    3.3523   -0.2854    0.0000 C   0  0  0  0  0  0  0  0  0  0  0  0
    3.3523   -1.1104    0.0000 C   0  0  0  0  0  0  0  0  0  0  0  0
    2.6378   -1.5229    0.0000 C   0  0  0  0  0  0  0  0  0  0  0  0
    1.9233   -1.1104    0.0000 C   0  0  0  0  0  0  0  0  0  0  0  0
  1  2  1  0  0  0  0
  2  3  1  0  0  0  0
  3  4  1  0  0  0  0
  4  5  2  0  0  0  0
  4  6  1  0  0  0  0
  6  7  1  0  0  0  0
  7  8  2  0  0  0  0
  8  9  1  0  0  0  0
  9 10  2  0  0  0  0
 10 11  1  0  0  0  0
 11 12  2  0  0  0  0
  7 12  1  0  0  0  0
  3 13  2  0  0  0  0
 13 14  1  0  0  0  0
 14 15  2  0  0  0  0
 15 16  1  0  0  0  0
 16 17  2  0  0  0  0
 17 18  1  0  0  0  0
 18 19  2  0  0  0  0
 14 19  1  0  0  0  0
  2 19  1  0  0  0  0
M  END
>  <StandardizerResult>
Tautomerize


>  <CdId>
222

>  <Mol Weight>
271.34

>  <Formula>
C14H13N3OS

>  <Molecule ChEMBL ID>
CHEMBL9788

>  <Molecule Max Phase>
0

>  <Molecular Weight>
271.35

>  <#RO5 Violations>
0

>  <AlogP>
2.28

>  <Compound Key>
1472

>  <Standard Type>
pKa_B1

>  <Standard Value>
2.6

>  <Comment>
'B1 Functional Group: Pyridine; Ionisation Formula: A0B1 (Functional Group: the part of the molecule the pKa refers to; Ionisation formula: AxBy where 'A' refers to acidic centers within the molecule that are appreciably ionised at a pH <= 11 and 'x' equals 0, 1 or 2; and 'B' refers to basic centers within the molecule that are appreciably ionised at a pH >= 2 and 'y' equals 0, 1, 2 or 3).'

>  <Potential Duplicate>
false

>  <Assay ChEMBL ID>
CHEMBL3301362

>  <Assay Description>
ASTRAZENECA: Most basic pKa value (pKa B1) determined by absorption and potentiometric titration using standard methodology from Sirius Analytical. Experimental range Bases: >= 2.

>  <Assay Type>
P

>  <BAO Format ID>
BAO_0000100

>  <BAO Label>
small-molecule physicochemical format

>  <Target ChEMBL ID>
CHEMBL2362975

>  <Target Name>
No relevant target

>  <Target Type>
NO TARGET

>  <Document ChEMBL ID>
CHEMBL3301361

>  <Source ID>
27

>  <Source Description>
AstraZeneca Deposited Data

>  <Strongest basic pKa>
2.37

>  <deltapKa>
0.2348295651845027

>  <Strongest basic pKa_Taut>
2.37

>  <deltapKa_TAut>
0.2348295651845027

$$$$

  Mrv1920 03272013312D          

 17 17  0  0  0  0            999 V2000
   -3.5724   -1.2375    0.0000 C   0  0  0  0  0  0  0  0  0  0  0  0
   -2.8579   -1.6500    0.0000 C   0  0  0  0  0  0  0  0  0  0  0  0
   -2.1434   -1.2375    0.0000 N   0  0  0  0  0  0  0  0  0  0  0  0
   -2.1434   -0.4125    0.0000 C   0  0  0  0  0  0  0  0  0  0  0  0
   -1.4289    0.0000    0.0000 C   0  0  0  0  0  0  0  0  0  0  0  0
   -1.4289   -1.6500    0.0000 C   0  0  0  0  0  0  0  0  0  0  0  0
   -0.7145   -1.2375    0.0000 C   0  0  0  0  0  0  0  0  0  0  0  0
    0.0000   -1.6500    0.0000 N   0  0  0  0  0  0  0  0  0  0  0  0
    0.7145   -1.2375    0.0000 C   0  0  0  0  0  0  0  0  0  0  0  0
    1.4289   -1.6500    0.0000 O   0  0  0  0  0  0  0  0  0  0  0  0
    0.7145   -0.4125    0.0000 C   0  0  0  0  0  0  0  0  0  0  0  0
    0.0000    0.0000    0.0000 C   0  0  0  0  0  0  0  0  0  0  0  0
    0.0000    0.8250    0.0000 C   0  0  0  0  0  0  0  0  0  0  0  0
    0.7145    1.2375    0.0000 C   0  0  0  0  0  0  0  0  0  0  0  0
    0.7145    2.0625    0.0000 N   0  0  0  0  0  0  0  0  0  0  0  0
    1.4289    0.8250    0.0000 C   0  0  0  0  0  0  0  0  0  0  0  0
    1.4289    0.0000    0.0000 C   0  0  0  0  0  0  0  0  0  0  0  0
  1  2  1  0  0  0  0
  2  3  1  0  0  0  0
  3  4  1  0  0  0  0
  4  5  1  0  0  0  0
  3  6  1  0  0  0  0
  6  7  1  0  0  0  0
  7  8  1  0  0  0  0
  8  9  1  0  0  0  0
  9 10  2  0  0  0  0
  9 11  1  0  0  0  0
 11 12  2  0  0  0  0
 12 13  1  0  0  0  0
 13 14  2  0  0  0  0
 14 15  1  0  0  0  0
 14 16  1  0  0  0  0
 16 17  2  0  0  0  0
 11 17  1  0  0  0  0
M  END
>  <StandardizerResult>
Tautomerize


>  <CdId>
135

>  <Mol Weight>
235.33

>  <Formula>
C13H21N3O

>  <Molecule ChEMBL ID>
CHEMBL640

>  <Molecule Name>
PROCAINAMIDE

>  <Molecule Max Phase>
4

>  <Molecular Weight>
235.33

>  <#RO5 Violations>
0

>  <AlogP>
1.34

>  <Compound Key>
690

>  <Standard Type>
pKa_B1

>  <Standard Value>
9.29

>  <Comment>
'B1 Functional Group: Tertiary amine; Ionisation Formula: A0B2 (Functional Group: the part of the molecule the pKa refers to; Ionisation formula: AxBy where 'A' refers to acidic centers within the molecule that are appreciably ionised at a pH <= 11 and 'x' equals 0, 1 or 2; and 'B' refers to basic centers within the molecule that are appreciably ionised at a pH >= 2 and 'y' equals 0, 1, 2 or 3).'

>  <Potential Duplicate>
false

>  <Assay ChEMBL ID>
CHEMBL3301362

>  <Assay Description>
ASTRAZENECA: Most basic pKa value (pKa B1) determined by absorption and potentiometric titration using standard methodology from Sirius Analytical. Experimental range Bases: >= 2.

>  <Assay Type>
P

>  <BAO Format ID>
BAO_0000100

>  <BAO Label>
small-molecule physicochemical format

>  <Target ChEMBL ID>
CHEMBL2362975

>  <Target Name>
No relevant target

>  <Target Type>
NO TARGET

>  <Document ChEMBL ID>
CHEMBL3301361

>  <Source ID>
27

>  <Source Description>
AstraZeneca Deposited Data

>  <Strongest basic pKa>
9.04

>  <deltapKa>
0.2456519199263809

>  <Strongest basic pKa_Taut>
9.04

>  <deltapKa_TAut>
0.2456519199263809

$$$$

  Mrv1920 03272013312D          

 22 25  0  0  0  0            999 V2000
    6.9120    0.6078    0.0000 Cl  0  0  0  0  0  0  0  0  0  0  0  0
    6.1237    0.8510    0.0000 C   0  0  0  0  0  0  0  0  0  0  0  0
    5.9401    1.6553    0.0000 C   0  0  0  0  0  0  0  0  0  0  0  0
    5.1517    1.8985    0.0000 C   0  0  0  0  0  0  0  0  0  0  0  0
    4.5470    1.3373    0.0000 C   0  0  0  0  0  0  0  0  0  0  0  0
    4.7305    0.5330    0.0000 C   0  0  0  0  0  0  0  0  0  0  0  0
    5.5189    0.2898    0.0000 C   0  0  0  0  0  0  0  0  0  0  0  0
    4.2162   -0.1120    0.0000 C   0  0  0  0  0  0  0  0  0  0  0  0
    3.3912   -0.1120    0.0000 C   0  0  0  0  0  0  0  0  0  0  0  0
    2.8768    0.5330    0.0000 C   0  0  0  0  0  0  0  0  0  0  0  0
    2.0884    0.2898    0.0000 C   0  0  0  0  0  0  0  0  0  0  0  0
    1.4837    0.8510    0.0000 C   0  0  0  0  0  0  0  0  0  0  0  0
    1.6673    1.6553    0.0000 C   0  0  0  0  0  0  0  0  0  0  0  0
    2.4556    1.8985    0.0000 N   0  0  0  0  0  0  0  0  0  0  0  0
    3.0604    1.3373    0.0000 C   0  0  0  0  0  0  0  0  0  0  0  0
    3.8037    1.6953    0.0000 C   0  0  0  0  0  0  0  0  0  0  0  0
    3.8037    2.5203    0.0000 C   0  0  0  0  0  0  0  0  0  0  0  0
    3.0892    2.9328    0.0000 C   0  0  0  0  0  0  0  0  0  0  0  0
    3.0892    3.7578    0.0000 C   0  0  0  0  0  0  0  0  0  0  0  0
    3.8037    4.1703    0.0000 N   0  0  0  0  0  0  0  0  0  0  0  0
    4.5181    3.7578    0.0000 C   0  0  0  0  0  0  0  0  0  0  0  0
    4.5181    2.9328    0.0000 C   0  0  0  0  0  0  0  0  0  0  0  0
  1  2  1  0  0  0  0
  2  3  2  0  0  0  0
  3  4  1  0  0  0  0
  4  5  2  0  0  0  0
  5  6  1  0  0  0  0
  6  7  2  0  0  0  0
  2  7  1  0  0  0  0
  6  8  1  0  0  0  0
  8  9  1  0  0  0  0
  9 10  1  0  0  0  0
 10 11  2  0  0  0  0
 11 12  1  0  0  0  0
 12 13  2  0  0  0  0
 13 14  1  0  0  0  0
 14 15  2  0  0  0  0
 10 15  1  0  0  0  0
 15 16  1  0  0  0  0
  5 16  1  0  0  0  0
 16 17  2  0  0  0  0
 17 18  1  0  0  0  0
 18 19  1  0  0  0  0
 19 20  1  0  0  0  0
 20 21  1  0  0  0  0
 21 22  1  0  0  0  0
 17 22  1  0  0  0  0
M  END
>  <StandardizerResult>
Tautomerize


>  <CdId>
239

>  <Mol Weight>
310.83

>  <Formula>
C19H19ClN2

>  <Molecule ChEMBL ID>
CHEMBL1172

>  <Molecule Name>
DESLORATADINE

>  <Molecule Max Phase>
4

>  <Molecular Weight>
310.83

>  <#RO5 Violations>
0

>  <AlogP>
4.02

>  <Compound Key>
1721

>  <Standard Type>
pKa_B1

>  <Standard Value>
10.0

>  <Comment>
'B1 Functional Group: Piperidine; Ionisation Formula: A0B2 (Functional Group: the part of the molecule the pKa refers to; Ionisation formula: AxBy where 'A' refers to acidic centers within the molecule that are appreciably ionised at a pH <= 11 and 'x' equals 0, 1 or 2; and 'B' refers to basic centers within the molecule that are appreciably ionised at a pH >= 2 and 'y' equals 0, 1, 2 or 3).'

>  <Potential Duplicate>
false

>  <Assay ChEMBL ID>
CHEMBL3301362

>  <Assay Description>
ASTRAZENECA: Most basic pKa value (pKa B1) determined by absorption and potentiometric titration using standard methodology from Sirius Analytical. Experimental range Bases: >= 2.

>  <Assay Type>
P

>  <BAO Format ID>
BAO_0000100

>  <BAO Label>
small-molecule physicochemical format

>  <Target ChEMBL ID>
CHEMBL2362975

>  <Target Name>
No relevant target

>  <Target Type>
NO TARGET

>  <Document ChEMBL ID>
CHEMBL3301361

>  <Source ID>
27

>  <Source Description>
AstraZeneca Deposited Data

>  <Strongest basic pKa>
9.73

>  <deltapKa>
0.2708779593303561

>  <Strongest basic pKa_Taut>
9.73

>  <deltapKa_TAut>
0.2708779593303561

$$$$

  Mrv1920 03272013312D          

  6  6  0  0  0  0            999 V2000
    0.5678    1.9393    0.0000 C   0  0  0  0  0  0  0  0  0  0  0  0
    0.5678    1.1143    0.0000 C   0  0  0  0  0  0  0  0  0  0  0  0
    1.2352    0.6294    0.0000 N   0  0  0  0  0  0  0  0  0  0  0  0
    0.9803   -0.1553    0.0000 C   0  0  0  0  0  0  0  0  0  0  0  0
    0.1553   -0.1553    0.0000 C   0  0  0  0  0  0  0  0  0  0  0  0
   -0.0997    0.6294    0.0000 N   0  0  0  0  0  0  0  0  0  0  0  0
  1  2  1  0  0  0  0
  2  3  2  0  0  0  0
  3  4  1  0  0  0  0
  4  5  2  0  0  0  0
  5  6  1  0  0  0  0
  2  6  1  0  0  0  0
M  END
>  <StandardizerResult>
Tautomerize


>  <CdId>
96

>  <Mol Weight>
82.11

>  <Formula>
C4H6N2

>  <Molecule ChEMBL ID>
CHEMBL293391

>  <Molecule Max Phase>
0

>  <Molecular Weight>
82.11

>  <#RO5 Violations>
0

>  <AlogP>
0.72

>  <Compound Key>
25

>  <Standard Type>
pKa_B1

>  <Standard Value>
7.8

>  <Comment>
'B1 Functional Group: 1H-imidazole, 2-methyl-; Ionisation Formula: A0B1 (Functional Group: the part of the molecule the pKa refers to; Ionisation formula: AxBy where 'A' refers to acidic centers within the molecule that are appreciably ionised at a pH <= 11 and 'x' equals 0, 1 or 2; and 'B' refers to basic centers within the molecule that are appreciably ionised at a pH >= 2 and 'y' equals 0, 1, 2 or 3).'

>  <Potential Duplicate>
false

>  <Assay ChEMBL ID>
CHEMBL3301362

>  <Assay Description>
ASTRAZENECA: Most basic pKa value (pKa B1) determined by absorption and potentiometric titration using standard methodology from Sirius Analytical. Experimental range Bases: >= 2.

>  <Assay Type>
P

>  <BAO Format ID>
BAO_0000100

>  <BAO Label>
small-molecule physicochemical format

>  <Target ChEMBL ID>
CHEMBL2362975

>  <Target Name>
No relevant target

>  <Target Type>
NO TARGET

>  <Document ChEMBL ID>
CHEMBL3301361

>  <Source ID>
27

>  <Source Description>
AstraZeneca Deposited Data

>  <Strongest basic pKa>
7.52

>  <deltapKa>
0.283926857657236

>  <Strongest basic pKa_Taut>
7.52

>  <deltapKa_TAut>
0.283926857657236

$$$$

  Mrv1920 03272013312D          

 23 26  0  0  0  0            999 V2000
    1.9594    3.9102    0.0000 C   0  0  0  0  0  0  0  0  0  0  0  0
    2.3173    3.1669    0.0000 N   0  0  0  0  0  0  0  0  0  0  0  0
    3.1400    3.1053    0.0000 C   0  0  0  0  0  0  0  0  0  0  0  0
    3.4980    2.3620    0.0000 C   0  0  0  0  0  0  0  0  0  0  0  0
    3.0332    1.6803    0.0000 N   0  0  0  0  0  0  0  0  0  0  0  0
    3.3912    0.9370    0.0000 C   0  0  0  0  0  0  0  0  0  0  0  0
    4.2162    0.9370    0.0000 N   0  0  0  0  0  0  0  0  0  0  0  0
    4.7305    0.2920    0.0000 C   0  0  0  0  0  0  0  0  0  0  0  0
    5.5189    0.5352    0.0000 C   0  0  0  0  0  0  0  0  0  0  0  0
    6.1237   -0.0260    0.0000 C   0  0  0  0  0  0  0  0  0  0  0  0
    6.9120    0.2172    0.0000 Cl  0  0  0  0  0  0  0  0  0  0  0  0
    5.9401   -0.8303    0.0000 C   0  0  0  0  0  0  0  0  0  0  0  0
    5.1517   -1.0735    0.0000 C   0  0  0  0  0  0  0  0  0  0  0  0
    4.5470   -0.5123    0.0000 C   0  0  0  0  0  0  0  0  0  0  0  0
    3.8037   -0.8703    0.0000 N   0  0  0  0  0  0  0  0  0  0  0  0
    3.0604   -0.5123    0.0000 C   0  0  0  0  0  0  0  0  0  0  0  0
    2.4556   -1.0735    0.0000 C   0  0  0  0  0  0  0  0  0  0  0  0
    1.6673   -0.8303    0.0000 C   0  0  0  0  0  0  0  0  0  0  0  0
    1.4837   -0.0260    0.0000 C   0  0  0  0  0  0  0  0  0  0  0  0
    2.0884    0.5352    0.0000 C   0  0  0  0  0  0  0  0  0  0  0  0
    2.8768    0.2920    0.0000 C   0  0  0  0  0  0  0  0  0  0  0  0
    2.2105    1.7420    0.0000 C   0  0  0  0  0  0  0  0  0  0  0  0
    1.8526    2.4853    0.0000 C   0  0  0  0  0  0  0  0  0  0  0  0
  1  2  1  0  0  0  0
  2  3  1  0  0  0  0
  3  4  1  0  0  0  0
  4  5  1  0  0  0  0
  5  6  1  0  0  0  0
  6  7  2  0  0  0  0
  7  8  1  0  0  0  0
  8  9  2  0  0  0  0
  9 10  1  0  0  0  0
 10 11  1  0  0  0  0
 10 12  2  0  0  0  0
 12 13  1  0  0  0  0
 13 14  2  0  0  0  0
  8 14  1  0  0  0  0
 14 15  1  0  0  0  0
 15 16  1  0  0  0  0
 16 17  2  0  0  0  0
 17 18  1  0  0  0  0
 18 19  2  0  0  0  0
 19 20  1  0  0  0  0
 20 21  2  0  0  0  0
 16 21  1  0  0  0  0
  6 21  1  0  0  0  0
  5 22  1  0  0  0  0
 22 23  1  0  0  0  0
  2 23  1  0  0  0  0
M  END
>  <StandardizerResult>
Tautomerize


>  <CdId>
107

>  <Mol Weight>
326.83

>  <Formula>
C18H19ClN4

>  <Molecule ChEMBL ID>
CHEMBL42

>  <Molecule Name>
CLOZAPINE

>  <Molecule Max Phase>
4

>  <Molecular Weight>
326.83

>  <#RO5 Violations>
0

>  <AlogP>
3.72

>  <Compound Key>
211

>  <Standard Type>
pKa_B1

>  <Standard Value>
7.64

>  <Comment>
'B1 Functional Group: 5H-dibenzo[b,e][1,4]diazepin-11-amine; Ionisation Formula: A0B2 (Functional Group: the part of the molecule the pKa refers to; Ionisation formula: AxBy where 'A' refers to acidic centers within the molecule that are appreciably ionised at a pH <= 11 and 'x' equals 0, 1 or 2; and 'B' refers to basic centers within the molecule that are appreciably ionised at a pH >= 2 and 'y' equals 0, 1, 2 or 3).'

>  <Potential Duplicate>
false

>  <Assay ChEMBL ID>
CHEMBL3301362

>  <Assay Description>
ASTRAZENECA: Most basic pKa value (pKa B1) determined by absorption and potentiometric titration using standard methodology from Sirius Analytical. Experimental range Bases: >= 2.

>  <Assay Type>
P

>  <BAO Format ID>
BAO_0000100

>  <BAO Label>
small-molecule physicochemical format

>  <Target ChEMBL ID>
CHEMBL2362975

>  <Target Name>
No relevant target

>  <Target Type>
NO TARGET

>  <Document ChEMBL ID>
CHEMBL3301361

>  <Source ID>
27

>  <Source Description>
AstraZeneca Deposited Data

>  <Strongest basic pKa>
7.35

>  <deltapKa>
0.2889909346438362

>  <Strongest basic pKa_Taut>
7.35

>  <deltapKa_TAut>
0.2889909346438362

$$$$

  Mrv1920 03272013312D          

 25 27  0  0  1  0            999 V2000
    2.5600    0.7927    0.0000 C   0  0  0  0  0  0  0  0  0  0  0  0
    1.9469    1.3448    0.0000 C   0  0  0  0  0  0  0  0  0  0  0  0
    2.5600    1.8968    0.0000 C   0  0  0  0  0  0  0  0  0  0  0  0
    1.4620    0.6773    0.0000 S   0  0  0  0  0  0  0  0  0  0  0  0
    0.6773    0.9323    0.0000 C   0  0  2  0  0  0  0  0  0  0  0  0
   -0.1477    0.9323    0.0000 C   0  0  2  0  0  0  0  0  0  0  0  0
   -0.7310    0.3489    0.0000 N   0  0  0  0  0  0  0  0  0  0  0  0
   -1.5279    0.5624    0.0000 C   0  0  0  0  0  0  0  0  0  0  0  0
   -1.7414    1.3593    0.0000 O   0  0  0  0  0  0  0  0  0  0  0  0
   -2.1113   -0.0209    0.0000 C   0  0  2  0  0  0  0  0  0  0  0  0
   -1.8977   -0.8178    0.0000 N   0  0  0  0  0  0  0  0  0  0  0  0
   -2.9082    0.1926    0.0000 C   0  0  0  0  0  0  0  0  0  0  0  0
   -3.4915   -0.3908    0.0000 C   0  0  0  0  0  0  0  0  0  0  0  0
   -4.2884   -0.1772    0.0000 C   0  0  0  0  0  0  0  0  0  0  0  0
   -4.5019    0.6197    0.0000 C   0  0  0  0  0  0  0  0  0  0  0  0
   -5.2988    0.8332    0.0000 O   0  0  0  0  0  0  0  0  0  0  0  0
   -3.9186    1.2030    0.0000 C   0  0  0  0  0  0  0  0  0  0  0  0
   -3.1217    0.9895    0.0000 C   0  0  0  0  0  0  0  0  0  0  0  0
   -0.1477    1.7573    0.0000 C   0  0  0  0  0  0  0  0  0  0  0  0
   -0.7310    2.3406    0.0000 O   0  0  0  0  0  0  0  0  0  0  0  0
    0.6773    1.7573    0.0000 N   0  0  0  0  0  0  0  0  0  0  0  0
    1.4620    2.0122    0.0000 C   0  0  1  0  0  0  0  0  0  0  0  0
    1.7169    2.7968    0.0000 C   0  0  0  0  0  0  0  0  0  0  0  0
    1.1649    3.4099    0.0000 O   0  0  0  0  0  0  0  0  0  0  0  0
    2.5239    2.9684    0.0000 O   0  0  0  0  0  0  0  0  0  0  0  0
  1  2  1  0  0  0  0
  2  3  1  0  0  0  0
  2  4  1  0  0  0  0
  5  4  1  0  0  0  0
  5  6  1  0  0  0  0
  6  7  1  6  0  0  0
  7  8  1  0  0  0  0
  8  9  2  0  0  0  0
 10  8  1  0  0  0  0
 10 11  1  6  0  0  0
 10 12  1  0  0  0  0
 12 13  2  0  0  0  0
 13 14  1  0  0  0  0
 14 15  2  0  0  0  0
 15 16  1  0  0  0  0
 15 17  1  0  0  0  0
 17 18  2  0  0  0  0
 12 18  1  0  0  0  0
  6 19  1  0  0  0  0
 19 20  2  0  0  0  0
 19 21  1  0  0  0  0
  5 21  1  6  0  0  0
 22 21  1  0  0  0  0
 22  2  1  0  0  0  0
 22 23  1  1  0  0  0
 23 24  2  0  0  0  0
 23 25  1  0  0  0  0
M  END
>  <StandardizerResult>
Tautomerize


>  <CdId>
191

>  <Mol Weight>
365.4

>  <Formula>
C16H19N3O5S

>  <Molecule ChEMBL ID>
CHEMBL1082

>  <Molecule Name>
AMOXICILLIN

>  <Molecule Max Phase>
4

>  <Molecular Weight>
365.41

>  <#RO5 Violations>
0

>  <AlogP>
0.02

>  <Compound Key>
3046

>  <Standard Type>
pKa_B1

>  <Standard Value>
7.52

>  <Comment>
'B1 Functional Group: Primary amine; Ionisation Formula: A2B1 (Functional Group: the part of the molecule the pKa refers to; Ionisation formula: AxBy where 'A' refers to acidic centers within the molecule that are appreciably ionised at a pH <= 11 and 'x' equals 0, 1 or 2; and 'B' refers to basic centers within the molecule that are appreciably ionised at a pH >= 2 and 'y' equals 0, 1, 2 or 3).'

>  <Potential Duplicate>
false

>  <Assay ChEMBL ID>
CHEMBL3301362

>  <Assay Description>
ASTRAZENECA: Most basic pKa value (pKa B1) determined by absorption and potentiometric titration using standard methodology from Sirius Analytical. Experimental range Bases: >= 2.

>  <Assay Type>
P

>  <BAO Format ID>
BAO_0000100

>  <BAO Label>
small-molecule physicochemical format

>  <Target ChEMBL ID>
CHEMBL2362975

>  <Target Name>
No relevant target

>  <Target Type>
NO TARGET

>  <Document ChEMBL ID>
CHEMBL3301361

>  <Source ID>
27

>  <Source Description>
AstraZeneca Deposited Data

>  <Strongest basic pKa>
7.22

>  <deltapKa>
0.29838213549485815

>  <Strongest basic pKa_Taut>
7.22

>  <deltapKa_TAut>
0.29838213549485815

$$$$

  Mrv1920 03272013312D          

 37 41  0  0  1  0            999 V2000
    3.8430    2.0884    0.0000 C   0  0  0  0  0  0  0  0  0  0  0  0
    4.0979    1.3038    0.0000 C   0  0  0  0  0  0  0  0  0  0  0  0
    4.8825    1.0488    0.0000 N   0  0  0  0  0  0  0  0  0  0  0  0
    4.8825    0.2238    0.0000 N   0  0  0  0  0  0  0  0  0  0  0  0
    4.0979   -0.0311    0.0000 C   0  0  0  0  0  0  0  0  0  0  0  0
    3.8430   -0.8157    0.0000 C   0  0  0  0  0  0  0  0  0  0  0  0
    4.3950   -1.4288    0.0000 C   0  0  0  0  0  0  0  0  0  0  0  0
    3.0360   -0.9872    0.0000 C   0  0  0  0  0  0  0  0  0  0  0  0
    3.6130    0.6363    0.0000 N   0  0  0  0  0  0  0  0  0  0  0  0
    2.7880    0.6363    0.0000 C   0  0  1  0  0  0  0  0  0  0  0  0
    2.4300    1.3796    0.0000 C   0  0  0  0  0  0  0  0  0  0  0  0
    1.6257    1.5632    0.0000 C   0  0  2  0  0  0  0  0  0  0  0  0
    0.9807    1.0488    0.0000 C   0  0  0  0  0  0  0  0  0  0  0  0
    0.9807    0.2238    0.0000 C   0  0  0  0  0  0  0  0  0  0  0  0
    1.6257   -0.2905    0.0000 C   0  0  2  0  0  0  0  0  0  0  0  0
    2.4300   -0.1070    0.0000 C   0  0  0  0  0  0  0  0  0  0  0  0
    1.3940    0.6363    0.0000 N   0  0  0  0  0  0  0  0  0  0  0  0
    0.5690    0.6363    0.0000 C   0  0  0  0  0  0  0  0  0  0  0  0
    0.1565    1.3508    0.0000 C   0  0  0  0  0  0  0  0  0  0  0  0
   -0.6685    1.3508    0.0000 C   0  0  2  0  0  0  0  0  0  0  0  0
   -1.0810    2.0653    0.0000 N   0  0  0  0  0  0  0  0  0  0  0  0
   -1.9060    2.0653    0.0000 C   0  0  0  0  0  0  0  0  0  0  0  0
   -2.3185    1.3508    0.0000 O   0  0  0  0  0  0  0  0  0  0  0  0
   -2.3185    2.7798    0.0000 C   0  0  0  0  0  0  0  0  0  0  0  0
   -3.1435    2.7798    0.0000 C   0  0  0  0  0  0  0  0  0  0  0  0
   -3.5560    3.4942    0.0000 C   0  0  0  0  0  0  0  0  0  0  0  0
   -3.1435    4.2087    0.0000 C   0  0  0  0  0  0  0  0  0  0  0  0
   -3.9187    4.4909    0.0000 F   0  0  0  0  0  0  0  0  0  0  0  0
   -3.0002    5.0212    0.0000 F   0  0  0  0  0  0  0  0  0  0  0  0
   -2.3185    4.2087    0.0000 C   0  0  0  0  0  0  0  0  0  0  0  0
   -1.9060    3.4942    0.0000 C   0  0  0  0  0  0  0  0  0  0  0  0
   -1.0810    0.6363    0.0000 C   0  0  0  0  0  0  0  0  0  0  0  0
   -0.6685   -0.0781    0.0000 C   0  0  0  0  0  0  0  0  0  0  0  0
   -1.0810   -0.7926    0.0000 C   0  0  0  0  0  0  0  0  0  0  0  0
   -1.9060   -0.7926    0.0000 C   0  0  0  0  0  0  0  0  0  0  0  0
   -2.3185   -0.0781    0.0000 C   0  0  0  0  0  0  0  0  0  0  0  0
   -1.9060    0.6363    0.0000 C   0  0  0  0  0  0  0  0  0  0  0  0
  1  2  1  0  0  0  0
  2  3  2  0  0  0  0
  3  4  1  0  0  0  0
  4  5  2  0  0  0  0
  5  6  1  0  0  0  0
  6  7  1  0  0  0  0
  6  8  1  0  0  0  0
  5  9  1  0  0  0  0
  2  9  1  0  0  0  0
 10  9  1  6  0  0  0
 10 11  1  0  0  0  0
 12 11  1  0  0  0  0
 12 13  1  0  0  0  0
 13 14  1  0  0  0  0
 15 14  1  0  0  0  0
 15 16  1  0  0  0  0
 10 16  1  0  0  0  0
 15 17  1  6  0  0  0
 12 17  1  6  0  0  0
 17 18  1  0  0  0  0
 18 19  1  0  0  0  0
 20 19  1  0  0  0  0
 20 21  1  1  0  0  0
 21 22  1  0  0  0  0
 22 23  2  0  0  0  0
 22 24  1  0  0  0  0
 24 25  1  0  0  0  0
 25 26  1  0  0  0  0
 26 27  1  0  0  0  0
 27 28  1  0  0  0  0
 27 29  1  0  0  0  0
 27 30  1  0  0  0  0
 30 31  1  0  0  0  0
 24 31  1  0  0  0  0
 20 32  1  0  0  0  0
 32 33  2  0  0  0  0
 33 34  1  0  0  0  0
 34 35  2  0  0  0  0
 35 36  1  0  0  0  0
 36 37  2  0  0  0  0
 32 37  1  0  0  0  0
M  END
>  <StandardizerResult>
Tautomerize


>  <CdId>
216

>  <Mol Weight>
513.68

>  <Formula>
C29H41F2N5O

>  <Molecule ChEMBL ID>
CHEMBL1201187

>  <Molecule Name>
MARAVIROC

>  <Molecule Max Phase>
4

>  <Molecular Weight>
513.68

>  <#RO5 Violations>
2

>  <AlogP>
5.95

>  <Compound Key>
2031

>  <Standard Type>
pKa_B1

>  <Standard Value>
9.66

>  <Comment>
'B1 Functional Group: 8-Azabicyclo[3.2.1]octane; Ionisation Formula: A0B2 (Functional Group: the part of the molecule the pKa refers to; Ionisation formula: AxBy where 'A' refers to acidic centers within the molecule that are appreciably ionised at a pH <= 11 and 'x' equals 0, 1 or 2; and 'B' refers to basic centers within the molecule that are appreciably ionised at a pH >= 2 and 'y' equals 0, 1, 2 or 3).'

>  <Potential Duplicate>
false

>  <Assay ChEMBL ID>
CHEMBL3301362

>  <Assay Description>
ASTRAZENECA: Most basic pKa value (pKa B1) determined by absorption and potentiometric titration using standard methodology from Sirius Analytical. Experimental range Bases: >= 2.

>  <Assay Type>
P

>  <BAO Format ID>
BAO_0000100

>  <BAO Label>
small-molecule physicochemical format

>  <Target ChEMBL ID>
CHEMBL2362975

>  <Target Name>
No relevant target

>  <Target Type>
NO TARGET

>  <Document ChEMBL ID>
CHEMBL3301361

>  <Source ID>
27

>  <Source Description>
AstraZeneca Deposited Data

>  <Strongest basic pKa>
9.35

>  <deltapKa>
0.3087014099131338

>  <Strongest basic pKa_Taut>
9.35

>  <deltapKa_TAut>
0.3087014099131338

$$$$

  Mrv1920 03272013312D          

 18 19  0  0  0  0            999 V2000
    0.7145   -1.2375    0.0000 C   0  0  0  0  0  0  0  0  0  0  0  0
    0.7145   -0.4125    0.0000 C   0  0  0  0  0  0  0  0  0  0  0  0
    0.0000    0.0000    0.0000 C   0  0  0  0  0  0  0  0  0  0  0  0
    0.0000    0.8250    0.0000 C   0  0  0  0  0  0  0  0  0  0  0  0
   -0.7145    1.2375    0.0000 C   0  0  0  0  0  0  0  0  0  0  0  0
   -1.4289    1.6500    0.0000 C   0  0  0  0  0  0  0  0  0  0  0  0
   -1.1270    0.5230    0.0000 C   0  0  0  0  0  0  0  0  0  0  0  0
   -0.3020    1.9520    0.0000 C   0  0  0  0  0  0  0  0  0  0  0  0
    0.7145    1.2375    0.0000 C   0  0  0  0  0  0  0  0  0  0  0  0
    1.4289    0.8250    0.0000 C   0  0  0  0  0  0  0  0  0  0  0  0
    2.1434    1.2375    0.0000 C   0  0  0  0  0  0  0  0  0  0  0  0
    1.4289    0.0000    0.0000 C   0  0  0  0  0  0  0  0  0  0  0  0
    2.1434   -0.4125    0.0000 C   0  0  0  0  0  0  0  0  0  0  0  0
    2.1434   -1.2375    0.0000 C   0  0  0  0  0  0  0  0  0  0  0  0
    2.8109   -1.7224    0.0000 N   0  0  0  0  0  0  0  0  0  0  0  0
    2.5559   -2.5070    0.0000 C   0  0  0  0  0  0  0  0  0  0  0  0
    1.7309   -2.5070    0.0000 C   0  0  0  0  0  0  0  0  0  0  0  0
    1.4760   -1.7224    0.0000 N   0  0  0  0  0  0  0  0  0  0  0  0
  1  2  1  0  0  0  0
  2  3  2  0  0  0  0
  3  4  1  0  0  0  0
  4  5  1  0  0  0  0
  5  6  1  0  0  0  0
  5  7  1  0  0  0  0
  5  8  1  0  0  0  0
  4  9  2  0  0  0  0
  9 10  1  0  0  0  0
 10 11  1  0  0  0  0
 10 12  2  0  0  0  0
  2 12  1  0  0  0  0
 12 13  1  0  0  0  0
 13 14  1  0  0  0  0
 14 15  2  0  0  0  0
 15 16  1  0  0  0  0
 16 17  1  0  0  0  0
 17 18  1  0  0  0  0
 14 18  1  0  0  0  0
M  END
>  <StandardizerResult>
Tautomerize


>  <CdId>
142

>  <Mol Weight>
244.38

>  <Formula>
C16H24N2

>  <Molecule ChEMBL ID>
CHEMBL312448

>  <Molecule Name>
XYLOMETAZOLINE

>  <Molecule Max Phase>
4

>  <Molecular Weight>
244.38

>  <#RO5 Violations>
0

>  <AlogP>
3.15

>  <Compound Key>
1421

>  <Standard Type>
pKa_B1

>  <Standard Value>
10.6

>  <Comment>
'B1 Functional Group: 1H-imidazole, 4,5-dihydro-; Ionisation Formula: A0B1 (Functional Group: the part of the molecule the pKa refers to; Ionisation formula: AxBy where 'A' refers to acidic centers within the molecule that are appreciably ionised at a pH <= 11 and 'x' equals 0, 1 or 2; and 'B' refers to basic centers within the molecule that are appreciably ionised at a pH >= 2 and 'y' equals 0, 1, 2 or 3).'

>  <Potential Duplicate>
false

>  <Assay ChEMBL ID>
CHEMBL3301362

>  <Assay Description>
ASTRAZENECA: Most basic pKa value (pKa B1) determined by absorption and potentiometric titration using standard methodology from Sirius Analytical. Experimental range Bases: >= 2.

>  <Assay Type>
P

>  <BAO Format ID>
BAO_0000100

>  <BAO Label>
small-molecule physicochemical format

>  <Target ChEMBL ID>
CHEMBL2362975

>  <Target Name>
No relevant target

>  <Target Type>
NO TARGET

>  <Document ChEMBL ID>
CHEMBL3301361

>  <Source ID>
27

>  <Source Description>
AstraZeneca Deposited Data

>  <Strongest basic pKa>
10.29

>  <deltapKa>
0.3121317962985408

>  <Strongest basic pKa_Taut>
10.29

>  <deltapKa_TAut>
0.3121317962985408

$$$$

  Mrv1920 03272013312D          

 10 10  0  0  0  0            999 V2000
    0.0000    3.3000    0.0000 N   0  0  0  0  0  0  0  0  0  0  0  0
    0.0000    2.4750    0.0000 C   0  0  0  0  0  0  0  0  0  0  0  0
    0.7145    2.0625    0.0000 C   0  0  0  0  0  0  0  0  0  0  0  0
    0.7145    1.2375    0.0000 C   0  0  0  0  0  0  0  0  0  0  0  0
    1.4289    0.8250    0.0000 C   0  0  0  0  0  0  0  0  0  0  0  0
    1.4289    0.0000    0.0000 C   0  0  0  0  0  0  0  0  0  0  0  0
    0.7145   -0.4125    0.0000 C   0  0  0  0  0  0  0  0  0  0  0  0
    0.7145   -1.2375    0.0000 Cl  0  0  0  0  0  0  0  0  0  0  0  0
    0.0000    0.0000    0.0000 C   0  0  0  0  0  0  0  0  0  0  0  0
    0.0000    0.8250    0.0000 C   0  0  0  0  0  0  0  0  0  0  0  0
  1  2  1  0  0  0  0
  2  3  1  0  0  0  0
  3  4  1  0  0  0  0
  4  5  2  0  0  0  0
  5  6  1  0  0  0  0
  6  7  2  0  0  0  0
  7  8  1  0  0  0  0
  7  9  1  0  0  0  0
  9 10  2  0  0  0  0
  4 10  1  0  0  0  0
M  END
>  <StandardizerResult>
Tautomerize


>  <CdId>
4

>  <Mol Weight>
155.63

>  <Formula>
C8H10ClN

>  <Molecule ChEMBL ID>
CHEMBL477764

>  <Molecule Max Phase>
0

>  <Molecular Weight>
155.63

>  <#RO5 Violations>
0

>  <AlogP>
1.84

>  <Compound Key>
1315

>  <Standard Type>
pKa_B1

>  <Standard Value>
10.1

>  <Comment>
'B1 Functional Group: Primary amine; Ionisation Formula: A0B1 (Functional Group: the part of the molecule the pKa refers to; Ionisation formula: AxBy where 'A' refers to acidic centers within the molecule that are appreciably ionised at a pH <= 11 and 'x' equals 0, 1 or 2; and 'B' refers to basic centers within the molecule that are appreciably ionised at a pH >= 2 and 'y' equals 0, 1, 2 or 3).'

>  <Potential Duplicate>
false

>  <Assay ChEMBL ID>
CHEMBL3301362

>  <Assay Description>
ASTRAZENECA: Most basic pKa value (pKa B1) determined by absorption and potentiometric titration using standard methodology from Sirius Analytical. Experimental range Bases: >= 2.

>  <Assay Type>
P

>  <BAO Format ID>
BAO_0000100

>  <BAO Label>
small-molecule physicochemical format

>  <Target ChEMBL ID>
CHEMBL2362975

>  <Target Name>
No relevant target

>  <Target Type>
NO TARGET

>  <Document ChEMBL ID>
CHEMBL3301361

>  <Source ID>
27

>  <Source Description>
AstraZeneca Deposited Data

>  <Strongest basic pKa>
9.78

>  <deltapKa>
0.32060006288821974

>  <Strongest basic pKa_Taut>
9.78

>  <deltapKa_TAut>
0.32060006288821974

$$$$

  Mrv1920 03272013312D          

 27 30  0  0  0  0            999 V2000
    0.7145   -2.8875    0.0000 C   0  0  0  0  0  0  0  0  0  0  0  0
    1.4289   -2.4750    0.0000 O   0  0  0  0  0  0  0  0  0  0  0  0
    1.4289   -1.6500    0.0000 C   0  0  0  0  0  0  0  0  0  0  0  0
    0.7145   -1.2375    0.0000 C   0  0  0  0  0  0  0  0  0  0  0  0
    0.0000   -1.6500    0.0000 N   0  0  0  0  0  0  0  0  0  0  0  0
    0.0000   -2.4750    0.0000 C   0  0  0  0  0  0  0  0  0  0  0  0
   -0.7145   -2.8875    0.0000 C   0  0  0  0  0  0  0  0  0  0  0  0
   -1.4289   -2.4750    0.0000 N   0  0  0  0  0  0  0  0  0  0  0  0
   -1.4289   -1.6500    0.0000 C   0  0  0  0  0  0  0  0  0  0  0  0
   -2.1434   -1.2375    0.0000 C   0  0  0  0  0  0  0  0  0  0  0  0
   -0.7145   -1.2375    0.0000 C   0  0  0  0  0  0  0  0  0  0  0  0
    0.7145   -0.4125    0.0000 C   0  0  0  0  0  0  0  0  0  0  0  0
    0.0000    0.0000    0.0000 F   0  0  0  0  0  0  0  0  0  0  0  0
    1.4289    0.0000    0.0000 C   0  0  0  0  0  0  0  0  0  0  0  0
    2.1434   -0.4125    0.0000 C   0  0  0  0  0  0  0  0  0  0  0  0
    2.8579    0.0000    0.0000 C   0  0  0  0  0  0  0  0  0  0  0  0
    2.8579    0.8250    0.0000 O   0  0  0  0  0  0  0  0  0  0  0  0
    3.5724   -0.4125    0.0000 C   0  0  0  0  0  0  0  0  0  0  0  0
    4.2868    0.0000    0.0000 C   0  0  0  0  0  0  0  0  0  0  0  0
    4.2868    0.8250    0.0000 O   0  0  0  0  0  0  0  0  0  0  0  0
    5.0013   -0.4125    0.0000 O   0  0  0  0  0  0  0  0  0  0  0  0
    3.5724   -1.2375    0.0000 C   0  0  0  0  0  0  0  0  0  0  0  0
    2.8579   -1.6500    0.0000 N   0  0  0  0  0  0  0  0  0  0  0  0
    2.8579   -2.4750    0.0000 C   0  0  0  0  0  0  0  0  0  0  0  0
    3.2704   -3.1895    0.0000 C   0  0  0  0  0  0  0  0  0  0  0  0
    2.4454   -3.1895    0.0000 C   0  0  0  0  0  0  0  0  0  0  0  0
    2.1434   -1.2375    0.0000 C   0  0  0  0  0  0  0  0  0  0  0  0
  1  2  1  0  0  0  0
  2  3  1  0  0  0  0
  3  4  1  0  0  0  0
  4  5  1  0  0  0  0
  5  6  1  0  0  0  0
  6  7  1  0  0  0  0
  7  8  1  0  0  0  0
  8  9  1  0  0  0  0
  9 10  1  0  0  0  0
  9 11  1  0  0  0  0
  5 11  1  0  0  0  0
  4 12  2  0  0  0  0
 12 13  1  0  0  0  0
 12 14  1  0  0  0  0
 14 15  2  0  0  0  0
 15 16  1  0  0  0  0
 16 17  2  0  0  0  0
 16 18  1  0  0  0  0
 18 19  1  0  0  0  0
 19 20  2  0  0  0  0
 19 21  1  0  0  0  0
 18 22  2  0  0  0  0
 22 23  1  0  0  0  0
 23 24  1  0  0  0  0
 24 25  1  0  0  0  0
 25 26  1  0  0  0  0
 24 26  1  0  0  0  0
 23 27  1  0  0  0  0
  3 27  2  0  0  0  0
 15 27  1  0  0  0  0
M  END
>  <StandardizerResult>
Tautomerize


>  <CdId>
235

>  <Mol Weight>
375.4

>  <Formula>
C19H22FN3O4

>  <Molecule ChEMBL ID>
CHEMBL31

>  <Molecule Name>
GATIFLOXACIN

>  <Molecule Max Phase>
4

>  <Molecular Weight>
375.4

>  <#RO5 Violations>
0

>  <AlogP>
1.98

>  <Compound Key>
1972

>  <Standard Type>
pKa_B1

>  <Standard Value>
9.18

>  <Comment>
'B1 Functional Group: Piperazine; Ionisation Formula: A1B1 (Functional Group: the part of the molecule the pKa refers to; Ionisation formula: AxBy where 'A' refers to acidic centers within the molecule that are appreciably ionised at a pH <= 11 and 'x' equals 0, 1 or 2; and 'B' refers to basic centers within the molecule that are appreciably ionised at a pH >= 2 and 'y' equals 0, 1, 2 or 3).'

>  <Potential Duplicate>
false

>  <Assay ChEMBL ID>
CHEMBL3301362

>  <Assay Description>
ASTRAZENECA: Most basic pKa value (pKa B1) determined by absorption and potentiometric titration using standard methodology from Sirius Analytical. Experimental range Bases: >= 2.

>  <Assay Type>
P

>  <BAO Format ID>
BAO_0000100

>  <BAO Label>
small-molecule physicochemical format

>  <Target ChEMBL ID>
CHEMBL2362975

>  <Target Name>
No relevant target

>  <Target Type>
NO TARGET

>  <Document ChEMBL ID>
CHEMBL3301361

>  <Source ID>
27

>  <Source Description>
AstraZeneca Deposited Data

>  <Strongest basic pKa>
8.82

>  <deltapKa>
0.3639744671233345

>  <Strongest basic pKa_Taut>
8.82

>  <deltapKa_TAut>
0.3639744671233345

$$$$

  Mrv1920 03272013312D          

 35 38  0  0  0  0            999 V2000
   -1.5356    9.7152    0.0000 N   0  0  0  0  0  0  0  0  0  0  0  0
   -2.2501    9.3027    0.0000 C   0  0  0  0  0  0  0  0  0  0  0  0
   -2.2501    8.4777    0.0000 C   0  0  0  0  0  0  0  0  0  0  0  0
   -2.9646    8.0652    0.0000 C   0  0  0  0  0  0  0  0  0  0  0  0
   -2.9646    7.2402    0.0000 C   0  0  0  0  0  0  0  0  0  0  0  0
   -3.6791    6.8277    0.0000 C   0  0  0  0  0  0  0  0  0  0  0  0
   -3.6791    6.0027    0.0000 C   0  0  0  0  0  0  0  0  0  0  0  0
   -4.3935    5.5902    0.0000 C   0  0  0  0  0  0  0  0  0  0  0  0
   -5.1080    5.1777    0.0000 F   0  0  0  0  0  0  0  0  0  0  0  0
   -4.8060    6.3047    0.0000 F   0  0  0  0  0  0  0  0  0  0  0  0
   -3.9810    4.8757    0.0000 F   0  0  0  0  0  0  0  0  0  0  0  0
   -2.9646    5.5902    0.0000 C   0  0  0  0  0  0  0  0  0  0  0  0
   -2.2501    6.0027    0.0000 C   0  0  0  0  0  0  0  0  0  0  0  0
   -2.2501    6.8277    0.0000 C   0  0  0  0  0  0  0  0  0  0  0  0
   -1.5356    7.2402    0.0000 O   0  0  0  0  0  0  0  0  0  0  0  0
   -0.8212    6.8277    0.0000 C   0  0  0  0  0  0  0  0  0  0  0  0
   -0.1067    7.2402    0.0000 C   0  0  0  0  0  0  0  0  0  0  0  0
    0.6078    6.8277    0.0000 C   0  0  0  0  0  0  0  0  0  0  0  0
    1.3222    7.2402    0.0000 F   0  0  0  0  0  0  0  0  0  0  0  0
    0.6078    6.0027    0.0000 C   0  0  0  0  0  0  0  0  0  0  0  0
    1.3222    5.5902    0.0000 S   0  0  0  0  0  0  0  0  0  0  0  0
    0.9097    4.8757    0.0000 O   0  0  0  0  0  0  0  0  0  0  0  0
    1.7347    6.3047    0.0000 O   0  0  0  0  0  0  0  0  0  0  0  0
    2.0367    5.1777    0.0000 N   0  0  0  0  0  0  0  0  0  0  0  0
    2.0367    4.3527    0.0000 C   0  0  0  0  0  0  0  0  0  0  0  0
    2.7041    3.8678    0.0000 N   0  0  0  0  0  0  0  0  0  0  0  0
    2.4492    3.0831    0.0000 C   0  0  0  0  0  0  0  0  0  0  0  0
    1.6242    3.0831    0.0000 N   0  0  0  0  0  0  0  0  0  0  0  0
    1.3693    3.8678    0.0000 S   0  0  0  0  0  0  0  0  0  0  0  0
   -0.1067    5.5902    0.0000 C   0  0  0  0  0  0  0  0  0  0  0  0
   -0.8212    6.0027    0.0000 C   0  0  0  0  0  0  0  0  0  0  0  0
   -1.5356    5.5902    0.0000 Cl  0  0  0  0  0  0  0  0  0  0  0  0
   -3.6791    8.4777    0.0000 C   0  0  0  0  0  0  0  0  0  0  0  0
   -3.6791    9.3027    0.0000 C   0  0  0  0  0  0  0  0  0  0  0  0
   -2.9646    9.7152    0.0000 N   0  0  0  0  0  0  0  0  0  0  0  0
  1  2  1  0  0  0  0
  2  3  2  0  0  0  0
  3  4  1  0  0  0  0
  4  5  1  0  0  0  0
  5  6  2  0  0  0  0
  6  7  1  0  0  0  0
  7  8  1  0  0  0  0
  8  9  1  0  0  0  0
  8 10  1  0  0  0  0
  8 11  1  0  0  0  0
  7 12  2  0  0  0  0
 12 13  1  0  0  0  0
 13 14  2  0  0  0  0
  5 14  1  0  0  0  0
 14 15  1  0  0  0  0
 15 16  1  0  0  0  0
 16 17  2  0  0  0  0
 17 18  1  0  0  0  0
 18 19  1  0  0  0  0
 18 20  2  0  0  0  0
 20 21  1  0  0  0  0
 21 22  2  0  0  0  0
 21 23  2  0  0  0  0
 21 24  1  0  0  0  0
 24 25  1  0  0  0  0
 25 26  2  0  0  0  0
 26 27  1  0  0  0  0
 27 28  2  0  0  0  0
 28 29  1  0  0  0  0
 25 29  1  0  0  0  0
 20 30  1  0  0  0  0
 30 31  2  0  0  0  0
 16 31  1  0  0  0  0
 31 32  1  0  0  0  0
  4 33  2  0  0  0  0
 33 34  1  0  0  0  0
 34 35  2  0  0  0  0
  2 35  1  0  0  0  0
M  END
>  <StandardizerResult>
Tautomerize


>  <CdId>
67

>  <Mol Weight>
545.91

>  <Formula>
C20H12ClF4N5O3S2

>  <Molecule ChEMBL ID>
CHEMBL2325636

>  <Molecule Max Phase>
0

>  <Molecular Weight>
545.93

>  <#RO5 Violations>
2

>  <AlogP>
5.59

>  <Compound Key>
5673

>  <Standard Type>
pKa_B1

>  <Standard Value>
6.4

>  <Comment>
'B1 Functional Group: 2-Pyridinamine; Ionisation Formula: A1B1 (Functional Group: the part of the molecule the pKa refers to; Ionisation formula: AxBy where 'A' refers to acidic centers within the molecule that are appreciably ionised at a pH <= 11 and 'x' equals 0, 1 or 2; and 'B' refers to basic centers within the molecule that are appreciably ionised at a pH >= 2 and 'y' equals 0, 1, 2 or 3).'

>  <Potential Duplicate>
false

>  <Assay ChEMBL ID>
CHEMBL3301362

>  <Assay Description>
ASTRAZENECA: Most basic pKa value (pKa B1) determined by absorption and potentiometric titration using standard methodology from Sirius Analytical. Experimental range Bases: >= 2.

>  <Assay Type>
P

>  <BAO Format ID>
BAO_0000100

>  <BAO Label>
small-molecule physicochemical format

>  <Target ChEMBL ID>
CHEMBL2362975

>  <Target Name>
No relevant target

>  <Target Type>
NO TARGET

>  <Document ChEMBL ID>
CHEMBL3301361

>  <Source ID>
27

>  <Source Description>
AstraZeneca Deposited Data

>  <Strongest basic pKa>
6.02

>  <deltapKa>
0.3802943212841514

>  <Strongest basic pKa_Taut>
6.02

>  <deltapKa_TAut>
0.3802943212841514

$$$$

  Mrv1920 03272013312D          

 22 25  0  0  0  0            999 V2000
    4.9875    0.8260    0.0000 C   0  0  0  0  0  0  0  0  0  0  0  0
    5.4000    0.1115    0.0000 C   0  0  0  0  0  0  0  0  0  0  0  0
    6.2205    0.0253    0.0000 N   0  0  0  0  0  0  0  0  0  0  0  0
    6.3920   -0.7817    0.0000 C   0  0  0  0  0  0  0  0  0  0  0  0
    5.6775   -1.1942    0.0000 C   0  0  0  0  0  0  0  0  0  0  0  0
    5.0645   -0.6422    0.0000 N   0  0  0  0  0  0  0  0  0  0  0  0
    4.2575   -0.8137    0.0000 C   0  0  0  0  0  0  0  0  0  0  0  0
    3.7054   -0.2006    0.0000 C   0  0  0  0  0  0  0  0  0  0  0  0
    3.9604    0.5840    0.0000 C   0  0  0  0  0  0  0  0  0  0  0  0
    3.4084    1.1971    0.0000 C   0  0  0  0  0  0  0  0  0  0  0  0
    2.6014    1.0256    0.0000 C   0  0  0  0  0  0  0  0  0  0  0  0
    2.3464    0.2410    0.0000 C   0  0  0  0  0  0  0  0  0  0  0  0
    1.5214    0.2410    0.0000 C   0  0  0  0  0  0  0  0  0  0  0  0
    0.9694   -0.3721    0.0000 C   0  0  0  0  0  0  0  0  0  0  0  0
    0.1624   -0.2006    0.0000 C   0  0  0  0  0  0  0  0  0  0  0  0
   -0.0925    0.5840    0.0000 C   0  0  0  0  0  0  0  0  0  0  0  0
    0.4595    1.1971    0.0000 C   0  0  0  0  0  0  0  0  0  0  0  0
    1.2665    1.0256    0.0000 C   0  0  0  0  0  0  0  0  0  0  0  0
    1.9339    1.5105    0.0000 N   0  0  0  0  0  0  0  0  0  0  0  0
    1.9339    2.3355    0.0000 C   0  0  0  0  0  0  0  0  0  0  0  0
    2.8985   -0.3721    0.0000 C   0  0  0  0  0  0  0  0  0  0  0  0
    2.6435   -1.1567    0.0000 O   0  0  0  0  0  0  0  0  0  0  0  0
  1  2  1  0  0  0  0
  2  3  2  0  0  0  0
  3  4  1  0  0  0  0
  4  5  2  0  0  0  0
  5  6  1  0  0  0  0
  2  6  1  0  0  0  0
  6  7  1  0  0  0  0
  7  8  1  0  0  0  0
  8  9  1  0  0  0  0
  9 10  1  0  0  0  0
 10 11  1  0  0  0  0
 11 12  2  0  0  0  0
 12 13  1  0  0  0  0
 13 14  2  0  0  0  0
 14 15  1  0  0  0  0
 15 16  2  0  0  0  0
 16 17  1  0  0  0  0
 17 18  2  0  0  0  0
 13 18  1  0  0  0  0
 18 19  1  0  0  0  0
 11 19  1  0  0  0  0
 19 20  1  0  0  0  0
 12 21  1  0  0  0  0
  8 21  1  0  0  0  0
 21 22  2  0  0  0  0
M  END
>  <StandardizerResult>
Tautomerize


>  <CdId>
178

>  <Mol Weight>
293.37

>  <Formula>
C18H19N3O

>  <Molecule ChEMBL ID>
CHEMBL46

>  <Molecule Name>
ONDANSETRON

>  <Molecule Max Phase>
4

>  <Molecular Weight>
293.37

>  <#RO5 Violations>
0

>  <AlogP>
3.13

>  <Compound Key>
177

>  <Standard Type>
pKa_B1

>  <Standard Value>
7.73

>  <Comment>
'B1 Functional Group: 1H-imidazole, 2-methyl-; Ionisation Formula: A0B1 (Functional Group: the part of the molecule the pKa refers to; Ionisation formula: AxBy where 'A' refers to acidic centers within the molecule that are appreciably ionised at a pH <= 11 and 'x' equals 0, 1 or 2; and 'B' refers to basic centers within the molecule that are appreciably ionised at a pH >= 2 and 'y' equals 0, 1, 2 or 3).'

>  <Potential Duplicate>
false

>  <Assay ChEMBL ID>
CHEMBL3301362

>  <Assay Description>
ASTRAZENECA: Most basic pKa value (pKa B1) determined by absorption and potentiometric titration using standard methodology from Sirius Analytical. Experimental range Bases: >= 2.

>  <Assay Type>
P

>  <BAO Format ID>
BAO_0000100

>  <BAO Label>
small-molecule physicochemical format

>  <Target ChEMBL ID>
CHEMBL2362975

>  <Target Name>
No relevant target

>  <Target Type>
NO TARGET

>  <Document ChEMBL ID>
CHEMBL3301361

>  <Source ID>
27

>  <Source Description>
AstraZeneca Deposited Data

>  <Strongest basic pKa>
7.34

>  <deltapKa>
0.38568611551228393

>  <Strongest basic pKa_Taut>
7.34

>  <deltapKa_TAut>
0.38568611551228393

$$$$

  Mrv1920 03272013312D          

 22 23  0  0  1  0            999 V2000
    2.8579   -0.8250    0.0000 C   0  0  0  0  0  0  0  0  0  0  0  0
    2.8579   -1.6500    0.0000 N   0  0  0  0  0  0  0  0  0  0  0  0
    3.5724   -2.0625    0.0000 C   0  0  0  0  0  0  0  0  0  0  0  0
    4.2868   -1.6500    0.0000 C   0  0  0  0  0  0  0  0  0  0  0  0
    5.0013   -2.0625    0.0000 C   0  0  1  0  0  0  0  0  0  0  0  0
    5.7158   -1.6500    0.0000 O   0  0  0  0  0  0  0  0  0  0  0  0
    6.4302   -2.0625    0.0000 C   0  0  0  0  0  0  0  0  0  0  0  0
    6.4302   -2.8875    0.0000 C   0  0  0  0  0  0  0  0  0  0  0  0
    7.1447   -3.3000    0.0000 C   0  0  0  0  0  0  0  0  0  0  0  0
    7.1447   -4.1250    0.0000 O   0  0  0  0  0  0  0  0  0  0  0  0
    7.8592   -4.5375    0.0000 C   0  0  0  0  0  0  0  0  0  0  0  0
    7.8592   -2.8875    0.0000 C   0  0  0  0  0  0  0  0  0  0  0  0
    7.8592   -2.0625    0.0000 C   0  0  0  0  0  0  0  0  0  0  0  0
    7.1447   -1.6500    0.0000 C   0  0  0  0  0  0  0  0  0  0  0  0
    7.1447   -0.8250    0.0000 C   0  0  0  0  0  0  0  0  0  0  0  0
    7.1447    0.0000    0.0000 N   0  0  0  0  0  0  0  0  0  0  0  0
    5.0013   -2.8875    0.0000 C   0  0  0  0  0  0  0  0  0  0  0  0
    5.7158   -3.3000    0.0000 C   0  0  0  0  0  0  0  0  0  0  0  0
    5.7158   -4.1250    0.0000 C   0  0  0  0  0  0  0  0  0  0  0  0
    5.0013   -4.5375    0.0000 C   0  0  0  0  0  0  0  0  0  0  0  0
    4.2868   -4.1250    0.0000 C   0  0  0  0  0  0  0  0  0  0  0  0
    4.2868   -3.3000    0.0000 C   0  0  0  0  0  0  0  0  0  0  0  0
  1  2  1  0  0  0  0
  2  3  1  0  0  0  0
  3  4  1  0  0  0  0
  5  4  1  0  0  0  0
  5  6  1  1  0  0  0
  6  7  1  0  0  0  0
  7  8  2  0  0  0  0
  8  9  1  0  0  0  0
  9 10  1  0  0  0  0
 10 11  1  0  0  0  0
  9 12  2  0  0  0  0
 12 13  1  0  0  0  0
 13 14  2  0  0  0  0
  7 14  1  0  0  0  0
 14 15  1  0  0  0  0
 15 16  3  0  0  0  0
  5 17  1  0  0  0  0
 17 18  2  0  0  0  0
 18 19  1  0  0  0  0
 19 20  2  0  0  0  0
 20 21  1  0  0  0  0
 21 22  2  0  0  0  0
 17 22  1  0  0  0  0
M  END
>  <StandardizerResult>
Tautomerize


>  <CdId>
45

>  <Mol Weight>
296.37

>  <Formula>
C18H20N2O2

>  <Molecule ChEMBL ID>
CHEMBL1789274

>  <Molecule Max Phase>
0

>  <Molecular Weight>
296.37

>  <#RO5 Violations>
0

>  <AlogP>
3.3

>  <Compound Key>
2620

>  <Standard Type>
pKa_B1

>  <Standard Value>
10.2

>  <Comment>
'B1 Functional Group: Secondary amine; Ionisation Formula: A0B1 (Functional Group: the part of the molecule the pKa refers to; Ionisation formula: AxBy where 'A' refers to acidic centers within the molecule that are appreciably ionised at a pH <= 11 and 'x' equals 0, 1 or 2; and 'B' refers to basic centers within the molecule that are appreciably ionised at a pH >= 2 and 'y' equals 0, 1, 2 or 3).'

>  <Potential Duplicate>
false

>  <Assay ChEMBL ID>
CHEMBL3301362

>  <Assay Description>
ASTRAZENECA: Most basic pKa value (pKa B1) determined by absorption and potentiometric titration using standard methodology from Sirius Analytical. Experimental range Bases: >= 2.

>  <Assay Type>
P

>  <BAO Format ID>
BAO_0000100

>  <BAO Label>
small-molecule physicochemical format

>  <Target ChEMBL ID>
CHEMBL2362975

>  <Target Name>
No relevant target

>  <Target Type>
NO TARGET

>  <Document ChEMBL ID>
CHEMBL3301361

>  <Source ID>
27

>  <Source Description>
AstraZeneca Deposited Data

>  <Strongest basic pKa>
9.8

>  <deltapKa>
0.39686146608215545

>  <Strongest basic pKa_Taut>
9.8

>  <deltapKa_TAut>
0.39686146608215545

$$$$

  Mrv1920 03272013312D          

 29 32  0  0  0  0            999 V2000
   -3.5724   -2.8875    0.0000 C   0  0  0  0  0  0  0  0  0  0  0  0
   -2.8579   -2.4750    0.0000 N   0  0  0  0  0  0  0  0  0  0  0  0
   -2.8579   -1.6500    0.0000 C   0  0  0  0  0  0  0  0  0  0  0  0
   -2.1434   -1.2375    0.0000 C   0  0  0  0  0  0  0  0  0  0  0  0
   -1.4289   -1.6500    0.0000 N   0  0  0  0  0  0  0  0  0  0  0  0
   -0.7145   -1.2375    0.0000 C   0  0  0  0  0  0  0  0  0  0  0  0
    0.0000   -1.6500    0.0000 C   0  0  0  0  0  0  0  0  0  0  0  0
    0.7145   -1.2375    0.0000 C   0  0  0  0  0  0  0  0  0  0  0  0
    0.7145   -0.4125    0.0000 C   0  0  0  0  0  0  0  0  0  0  0  0
    0.0000    0.0000    0.0000 C   0  0  0  0  0  0  0  0  0  0  0  0
   -0.7145   -0.4125    0.0000 C   0  0  0  0  0  0  0  0  0  0  0  0
   -1.4289    0.0000    0.0000 F   0  0  0  0  0  0  0  0  0  0  0  0
    1.4289    0.0000    0.0000 C   0  0  0  0  0  0  0  0  0  0  0  0
    1.4289    0.8250    0.0000 O   0  0  0  0  0  0  0  0  0  0  0  0
    2.1434   -0.4125    0.0000 C   0  0  0  0  0  0  0  0  0  0  0  0
    2.8579    0.0000    0.0000 C   0  0  0  0  0  0  0  0  0  0  0  0
    3.5724   -0.4125    0.0000 O   0  0  0  0  0  0  0  0  0  0  0  0
    2.8579    0.8250    0.0000 O   0  0  0  0  0  0  0  0  0  0  0  0
    2.1434   -1.2375    0.0000 C   0  0  0  0  0  0  0  0  0  0  0  0
    1.4289   -1.6500    0.0000 N   0  0  0  0  0  0  0  0  0  0  0  0
    1.4289   -2.4750    0.0000 C   0  0  0  0  0  0  0  0  0  0  0  0
    2.1434   -2.8875    0.0000 C   0  0  0  0  0  0  0  0  0  0  0  0
    2.1434   -3.7125    0.0000 C   0  0  0  0  0  0  0  0  0  0  0  0
    1.4289   -4.1250    0.0000 C   0  0  0  0  0  0  0  0  0  0  0  0
    1.4289   -4.9500    0.0000 F   0  0  0  0  0  0  0  0  0  0  0  0
    0.7145   -3.7125    0.0000 C   0  0  0  0  0  0  0  0  0  0  0  0
    0.7145   -2.8875    0.0000 C   0  0  0  0  0  0  0  0  0  0  0  0
   -1.4289   -2.4750    0.0000 C   0  0  0  0  0  0  0  0  0  0  0  0
   -2.1434   -2.8875    0.0000 C   0  0  0  0  0  0  0  0  0  0  0  0
  1  2  1  0  0  0  0
  2  3  1  0  0  0  0
  3  4  1  0  0  0  0
  4  5  1  0  0  0  0
  5  6  1  0  0  0  0
  6  7  1  0  0  0  0
  7  8  2  0  0  0  0
  8  9  1  0  0  0  0
  9 10  2  0  0  0  0
 10 11  1  0  0  0  0
  6 11  2  0  0  0  0
 11 12  1  0  0  0  0
  9 13  1  0  0  0  0
 13 14  2  0  0  0  0
 13 15  1  0  0  0  0
 15 16  1  0  0  0  0
 16 17  2  0  0  0  0
 16 18  1  0  0  0  0
 15 19  2  0  0  0  0
 19 20  1  0  0  0  0
  8 20  1  0  0  0  0
 20 21  1  0  0  0  0
 21 22  2  0  0  0  0
 22 23  1  0  0  0  0
 23 24  2  0  0  0  0
 24 25  1  0  0  0  0
 24 26  1  0  0  0  0
 26 27  2  0  0  0  0
 21 27  1  0  0  0  0
  5 28  1  0  0  0  0
 28 29  1  0  0  0  0
  2 29  1  0  0  0  0
M  END
>  <StandardizerResult>
Tautomerize


>  <CdId>
224

>  <Mol Weight>
399.4

>  <Formula>
C21H19F2N3O3

>  <Molecule ChEMBL ID>
CHEMBL6259

>  <Molecule Name>
DIFLOXACIN

>  <Molecule Max Phase>
0

>  <Molecular Weight>
399.4

>  <#RO5 Violations>
0

>  <AlogP>
2.72

>  <Compound Key>
4151

>  <Standard Type>
pKa_B1

>  <Standard Value>
7.39

>  <Comment>
'B1 Functional Group: Piperazine; Ionisation Formula: A1B1 (Functional Group: the part of the molecule the pKa refers to; Ionisation formula: AxBy where 'A' refers to acidic centers within the molecule that are appreciably ionised at a pH <= 11 and 'x' equals 0, 1 or 2; and 'B' refers to basic centers within the molecule that are appreciably ionised at a pH >= 2 and 'y' equals 0, 1, 2 or 3).'

>  <Potential Duplicate>
false

>  <Assay ChEMBL ID>
CHEMBL3301362

>  <Assay Description>
ASTRAZENECA: Most basic pKa value (pKa B1) determined by absorption and potentiometric titration using standard methodology from Sirius Analytical. Experimental range Bases: >= 2.

>  <Assay Type>
P

>  <BAO Format ID>
BAO_0000100

>  <BAO Label>
small-molecule physicochemical format

>  <Target ChEMBL ID>
CHEMBL2362975

>  <Target Name>
No relevant target

>  <Target Type>
NO TARGET

>  <Document ChEMBL ID>
CHEMBL3301361

>  <Source ID>
27

>  <Source Description>
AstraZeneca Deposited Data

>  <Strongest basic pKa>
6.99

>  <deltapKa>
0.40247217248073053

>  <Strongest basic pKa_Taut>
6.99

>  <deltapKa_TAut>
0.40247217248073053

$$$$

  Mrv1920 03272013312D          

 20 20  0  0  0  0            999 V2000
    1.4289    0.8250    0.0000 C   0  0  0  0  0  0  0  0  0  0  0  0
    1.4289    0.0000    0.0000 C   0  0  0  0  0  0  0  0  0  0  0  0
    2.1434   -0.4125    0.0000 C   0  0  0  0  0  0  0  0  0  0  0  0
    2.1434   -1.2375    0.0000 N   0  0  0  0  0  0  0  0  0  0  0  0
    1.4289   -1.6500    0.0000 C   0  0  0  0  0  0  0  0  0  0  0  0
    1.4289   -2.4750    0.0000 C   0  0  0  0  0  0  0  0  0  0  0  0
    0.7145   -2.8875    0.0000 C   0  0  0  0  0  0  0  0  0  0  0  0
    2.8579   -1.6500    0.0000 C   0  0  0  0  0  0  0  0  0  0  0  0
    2.8579   -2.4750    0.0000 C   0  0  0  0  0  0  0  0  0  0  0  0
    3.5724   -2.8875    0.0000 C   0  0  0  0  0  0  0  0  0  0  0  0
    4.2868   -2.4750    0.0000 C   0  0  0  0  0  0  0  0  0  0  0  0
    5.0013   -2.8875    0.0000 C   0  0  0  0  0  0  0  0  0  0  0  0
    5.0013   -3.7125    0.0000 C   0  0  0  0  0  0  0  0  0  0  0  0
    5.7158   -4.1250    0.0000 O   0  0  0  0  0  0  0  0  0  0  0  0
    4.2868   -4.1250    0.0000 C   0  0  0  0  0  0  0  0  0  0  0  0
    4.2868   -4.9500    0.0000 N   0  0  0  0  0  0  0  0  0  0  0  0
    3.5724   -5.3625    0.0000 C   0  0  0  0  0  0  0  0  0  0  0  0
    3.5724   -6.1875    0.0000 C   0  0  0  0  0  0  0  0  0  0  0  0
    2.8579   -4.9500    0.0000 O   0  0  0  0  0  0  0  0  0  0  0  0
    3.5724   -3.7125    0.0000 C   0  0  0  0  0  0  0  0  0  0  0  0
  1  2  1  0  0  0  0
  2  3  1  0  0  0  0
  3  4  1  0  0  0  0
  4  5  1  0  0  0  0
  5  6  1  0  0  0  0
  6  7  1  0  0  0  0
  4  8  1  0  0  0  0
  8  9  1  0  0  0  0
  9 10  1  0  0  0  0
 10 11  2  0  0  0  0
 11 12  1  0  0  0  0
 12 13  2  0  0  0  0
 13 14  1  0  0  0  0
 13 15  1  0  0  0  0
 15 16  1  0  0  0  0
 16 17  1  0  0  0  0
 17 18  1  0  0  0  0
 17 19  2  0  0  0  0
 15 20  2  0  0  0  0
 10 20  1  0  0  0  0
M  END
>  <StandardizerResult>
Tautomerize


>  <CdId>
87

>  <Mol Weight>
278.4

>  <Formula>
C16H26N2O2

>  <Molecule ChEMBL ID>
CHEMBL369274

>  <Molecule Max Phase>
0

>  <Molecular Weight>
278.4

>  <#RO5 Violations>
0

>  <AlogP>
3.02

>  <Compound Key>
1466

>  <Standard Type>
pKa_B1

>  <Standard Value>
10.8

>  <Comment>
'B1 Functional Group: Tertiary amine; Ionisation Formula: A1B1 (Functional Group: the part of the molecule the pKa refers to; Ionisation formula: AxBy where 'A' refers to acidic centers within the molecule that are appreciably ionised at a pH <= 11 and 'x' equals 0, 1 or 2; and 'B' refers to basic centers within the molecule that are appreciably ionised at a pH >= 2 and 'y' equals 0, 1, 2 or 3).'

>  <Potential Duplicate>
false

>  <Assay ChEMBL ID>
CHEMBL3301362

>  <Assay Description>
ASTRAZENECA: Most basic pKa value (pKa B1) determined by absorption and potentiometric titration using standard methodology from Sirius Analytical. Experimental range Bases: >= 2.

>  <Assay Type>
P

>  <BAO Format ID>
BAO_0000100

>  <BAO Label>
small-molecule physicochemical format

>  <Target ChEMBL ID>
CHEMBL2362975

>  <Target Name>
No relevant target

>  <Target Type>
NO TARGET

>  <Document ChEMBL ID>
CHEMBL3301361

>  <Source ID>
27

>  <Source Description>
AstraZeneca Deposited Data

>  <Strongest basic pKa>
10.39

>  <deltapKa>
0.40651394646405414

>  <Strongest basic pKa_Taut>
10.39

>  <deltapKa_TAut>
0.40651394646405414

$$$$

  Mrv1920 03272013312D          

  7  7  0  0  0  0            999 V2000
   -0.1467    2.3518    0.0000 C   0  0  0  0  0  0  0  0  0  0  0  0
    0.5678    1.9393    0.0000 C   0  0  0  0  0  0  0  0  0  0  0  0
    0.5678    1.1143    0.0000 C   0  0  0  0  0  0  0  0  0  0  0  0
    1.2352    0.6294    0.0000 N   0  0  0  0  0  0  0  0  0  0  0  0
    0.9803   -0.1553    0.0000 C   0  0  0  0  0  0  0  0  0  0  0  0
    0.1553   -0.1553    0.0000 C   0  0  0  0  0  0  0  0  0  0  0  0
   -0.0997    0.6294    0.0000 N   0  0  0  0  0  0  0  0  0  0  0  0
  1  2  1  0  0  0  0
  2  3  1  0  0  0  0
  3  4  2  0  0  0  0
  4  5  1  0  0  0  0
  5  6  2  0  0  0  0
  6  7  1  0  0  0  0
  3  7  1  0  0  0  0
M  END
>  <StandardizerResult>
Tautomerize


>  <CdId>
220

>  <Mol Weight>
96.13

>  <Formula>
C5H8N2

>  <Molecule ChEMBL ID>
CHEMBL303797

>  <Molecule Max Phase>
0

>  <Molecular Weight>
96.13

>  <#RO5 Violations>
0

>  <AlogP>
0.97

>  <Compound Key>
1419

>  <Standard Type>
pKa_B1

>  <Standard Value>
7.8

>  <Comment>
'B1 Functional Group: 1H-imidazole, 2-ethyl-; Ionisation Formula: A0B1 (Functional Group: the part of the molecule the pKa refers to; Ionisation formula: AxBy where 'A' refers to acidic centers within the molecule that are appreciably ionised at a pH <= 11 and 'x' equals 0, 1 or 2; and 'B' refers to basic centers within the molecule that are appreciably ionised at a pH >= 2 and 'y' equals 0, 1, 2 or 3).'

>  <Potential Duplicate>
false

>  <Assay ChEMBL ID>
CHEMBL3301362

>  <Assay Description>
ASTRAZENECA: Most basic pKa value (pKa B1) determined by absorption and potentiometric titration using standard methodology from Sirius Analytical. Experimental range Bases: >= 2.

>  <Assay Type>
P

>  <BAO Format ID>
BAO_0000100

>  <BAO Label>
small-molecule physicochemical format

>  <Target ChEMBL ID>
CHEMBL2362975

>  <Target Name>
No relevant target

>  <Target Type>
NO TARGET

>  <Document ChEMBL ID>
CHEMBL3301361

>  <Source ID>
27

>  <Source Description>
AstraZeneca Deposited Data

>  <Strongest basic pKa>
7.39

>  <deltapKa>
0.40981279350203526

>  <Strongest basic pKa_Taut>
7.39

>  <deltapKa_TAut>
0.40981279350203526

$$$$

  Mrv1920 03272013312D          

 22 24  0  0  0  0            999 V2000
   -1.7347   -1.6011    0.0000 O   0  0  0  0  0  0  0  0  0  0  0  0
   -1.3222   -0.8866    0.0000 C   0  0  0  0  0  0  0  0  0  0  0  0
   -0.6078   -1.2991    0.0000 C   0  0  0  0  0  0  0  0  0  0  0  0
   -0.6078   -2.1241    0.0000 N   0  0  0  0  0  0  0  0  0  0  0  0
    0.0597   -2.6090    0.0000 C   0  0  0  0  0  0  0  0  0  0  0  0
   -0.1953   -3.3937    0.0000 N   0  0  0  0  0  0  0  0  0  0  0  0
   -1.0203   -3.3937    0.0000 C   0  0  0  0  0  0  0  0  0  0  0  0
   -1.2752   -2.6090    0.0000 N   0  0  0  0  0  0  0  0  0  0  0  0
   -0.9097   -0.1721    0.0000 C   0  0  0  0  0  0  0  0  0  0  0  0
   -0.0847   -0.1721    0.0000 N   0  0  0  0  0  0  0  0  0  0  0  0
    0.4002    0.4953    0.0000 C   0  0  0  0  0  0  0  0  0  0  0  0
    1.1848    0.2404    0.0000 N   0  0  0  0  0  0  0  0  0  0  0  0
    1.1848   -0.5846    0.0000 C   0  0  0  0  0  0  0  0  0  0  0  0
    0.4002   -0.8396    0.0000 N   0  0  0  0  0  0  0  0  0  0  0  0
   -2.0367   -0.4741    0.0000 C   0  0  0  0  0  0  0  0  0  0  0  0
   -2.7512   -0.8866    0.0000 C   0  0  0  0  0  0  0  0  0  0  0  0
   -3.4656   -0.4741    0.0000 C   0  0  0  0  0  0  0  0  0  0  0  0
   -3.4656    0.3509    0.0000 C   0  0  0  0  0  0  0  0  0  0  0  0
   -4.1801    0.7634    0.0000 F   0  0  0  0  0  0  0  0  0  0  0  0
   -2.7512    0.7634    0.0000 C   0  0  0  0  0  0  0  0  0  0  0  0
   -2.0367    0.3509    0.0000 C   0  0  0  0  0  0  0  0  0  0  0  0
   -1.3222    0.7634    0.0000 F   0  0  0  0  0  0  0  0  0  0  0  0
  1  2  1  0  0  0  0
  2  3  1  0  0  0  0
  3  4  1  0  0  0  0
  4  5  1  0  0  0  0
  5  6  2  0  0  0  0
  6  7  1  0  0  0  0
  7  8  2  0  0  0  0
  4  8  1  0  0  0  0
  2  9  1  0  0  0  0
  9 10  1  0  0  0  0
 10 11  1  0  0  0  0
 11 12  2  0  0  0  0
 12 13  1  0  0  0  0
 13 14  2  0  0  0  0
 10 14  1  0  0  0  0
  2 15  1  0  0  0  0
 15 16  2  0  0  0  0
 16 17  1  0  0  0  0
 17 18  2  0  0  0  0
 18 19  1  0  0  0  0
 18 20  1  0  0  0  0
 20 21  2  0  0  0  0
 15 21  1  0  0  0  0
 21 22  1  0  0  0  0
M  END
>  <StandardizerResult>
Tautomerize


>  <CdId>
90

>  <Mol Weight>
306.28

>  <Formula>
C13H12F2N6O

>  <Molecule ChEMBL ID>
CHEMBL106

>  <Molecule Name>
FLUCONAZOLE

>  <Molecule Max Phase>
4

>  <Molecular Weight>
306.28

>  <#RO5 Violations>
0

>  <AlogP>
0.74

>  <Compound Key>
1351

>  <Standard Type>
pKa_B1

>  <Standard Value>
2.72

>  <Comment>
'B1 Functional Group: 1H-1,2,4-triazole; Ionisation Formula: A0B2 (Functional Group: the part of the molecule the pKa refers to; Ionisation formula: AxBy where 'A' refers to acidic centers within the molecule that are appreciably ionised at a pH <= 11 and 'x' equals 0, 1 or 2; and 'B' refers to basic centers within the molecule that are appreciably ionised at a pH >= 2 and 'y' equals 0, 1, 2 or 3).'

>  <Potential Duplicate>
false

>  <Assay ChEMBL ID>
CHEMBL3301362

>  <Assay Description>
ASTRAZENECA: Most basic pKa value (pKa B1) determined by absorption and potentiometric titration using standard methodology from Sirius Analytical. Experimental range Bases: >= 2.

>  <Assay Type>
P

>  <BAO Format ID>
BAO_0000100

>  <BAO Label>
small-molecule physicochemical format

>  <Target ChEMBL ID>
CHEMBL2362975

>  <Target Name>
No relevant target

>  <Target Type>
NO TARGET

>  <Document ChEMBL ID>
CHEMBL3301361

>  <Source ID>
27

>  <Source Description>
AstraZeneca Deposited Data

>  <Strongest basic pKa>
2.3

>  <deltapKa>
0.4187599671809914

>  <Strongest basic pKa_Taut>
2.3

>  <deltapKa_TAut>
0.4187599671809914

$$$$

  Mrv1920 03272013312D          

 17 19  0  0  0  0            999 V2000
    1.4289   -2.4750    0.0000 N   0  0  0  0  0  0  0  0  0  0  0  0
    1.4289   -1.6500    0.0000 C   0  0  0  0  0  0  0  0  0  0  0  0
    0.7145   -1.2375    0.0000 N   0  0  0  0  0  0  0  0  0  0  0  0
    0.7145   -0.4125    0.0000 C   0  0  0  0  0  0  0  0  0  0  0  0
    0.0000    0.0000    0.0000 C   0  0  0  0  0  0  0  0  0  0  0  0
   -0.7145   -0.4125    0.0000 C   0  0  0  0  0  0  0  0  0  0  0  0
   -1.4289    0.0000    0.0000 C   0  0  0  0  0  0  0  0  0  0  0  0
   -1.4289    0.8250    0.0000 C   0  0  0  0  0  0  0  0  0  0  0  0
   -0.7145    1.2375    0.0000 C   0  0  0  0  0  0  0  0  0  0  0  0
    0.0000    0.8250    0.0000 C   0  0  0  0  0  0  0  0  0  0  0  0
    1.4289    0.0000    0.0000 C   0  0  0  0  0  0  0  0  0  0  0  0
    2.1434   -0.4125    0.0000 C   0  0  0  0  0  0  0  0  0  0  0  0
    2.8579    0.0000    0.0000 C   0  0  0  0  0  0  0  0  0  0  0  0
    3.5724   -0.4125    0.0000 C   0  0  0  0  0  0  0  0  0  0  0  0
    3.5724   -1.2375    0.0000 C   0  0  0  0  0  0  0  0  0  0  0  0
    2.8579   -1.6500    0.0000 C   0  0  0  0  0  0  0  0  0  0  0  0
    2.1434   -1.2375    0.0000 C   0  0  0  0  0  0  0  0  0  0  0  0
  1  2  1  0  0  0  0
  2  3  2  0  0  0  0
  3  4  1  0  0  0  0
  4  5  1  0  0  0  0
  5  6  2  0  0  0  0
  6  7  1  0  0  0  0
  7  8  2  0  0  0  0
  8  9  1  0  0  0  0
  9 10  2  0  0  0  0
  5 10  1  0  0  0  0
  4 11  2  0  0  0  0
 11 12  1  0  0  0  0
 12 13  2  0  0  0  0
 13 14  1  0  0  0  0
 14 15  2  0  0  0  0
 15 16  1  0  0  0  0
 16 17  2  0  0  0  0
  2 17  1  0  0  0  0
 12 17  1  0  0  0  0
M  END
>  <StandardizerResult>
Tautomerize


>  <CdId>
95

>  <Mol Weight>
220.28

>  <Formula>
C15H12N2

>  <Molecule ChEMBL ID>
CHEMBL1192444

>  <Molecule Max Phase>
0

>  <Molecular Weight>
220.28

>  <#RO5 Violations>
0

>  <AlogP>
3.48

>  <Compound Key>
1490

>  <Standard Type>
pKa_B1

>  <Standard Value>
6.9

>  <Comment>
'B1 Functional Group: 1-Isoquinolinamine; Ionisation Formula: A0B1 (Functional Group: the part of the molecule the pKa refers to; Ionisation formula: AxBy where 'A' refers to acidic centers within the molecule that are appreciably ionised at a pH <= 11 and 'x' equals 0, 1 or 2; and 'B' refers to basic centers within the molecule that are appreciably ionised at a pH >= 2 and 'y' equals 0, 1, 2 or 3).'

>  <Potential Duplicate>
false

>  <Assay ChEMBL ID>
CHEMBL3301362

>  <Assay Description>
ASTRAZENECA: Most basic pKa value (pKa B1) determined by absorption and potentiometric titration using standard methodology from Sirius Analytical. Experimental range Bases: >= 2.

>  <Assay Type>
P

>  <BAO Format ID>
BAO_0000100

>  <BAO Label>
small-molecule physicochemical format

>  <Target ChEMBL ID>
CHEMBL2362975

>  <Target Name>
No relevant target

>  <Target Type>
NO TARGET

>  <Document ChEMBL ID>
CHEMBL3301361

>  <Source ID>
27

>  <Source Description>
AstraZeneca Deposited Data

>  <Strongest basic pKa>
6.48

>  <deltapKa>
0.4220658478885584

>  <Strongest basic pKa_Taut>
6.48

>  <deltapKa_TAut>
0.4220658478885584

$$$$

  Mrv1920 03272013312D          

 15 17  0  0  0  0            999 V2000
   -0.7145   -0.4125    0.0000 C   0  0  0  0  0  0  0  0  0  0  0  0
   -0.7145   -1.2375    0.0000 C   0  0  0  0  0  0  0  0  0  0  0  0
    0.0000   -1.6500    0.0000 C   0  0  0  0  0  0  0  0  0  0  0  0
    0.7145   -1.2375    0.0000 C   0  0  0  0  0  0  0  0  0  0  0  0
    0.7145   -0.4125    0.0000 C   0  0  0  0  0  0  0  0  0  0  0  0
    0.0000    0.0000    0.0000 C   0  0  0  0  0  0  0  0  0  0  0  0
    1.4289    0.0000    0.0000 C   0  0  0  0  0  0  0  0  0  0  0  0
    2.1434   -0.4125    0.0000 C   0  0  0  0  0  0  0  0  0  0  0  0
    2.1434   -1.2375    0.0000 C   0  0  0  0  0  0  0  0  0  0  0  0
    1.4289   -1.6500    0.0000 C   0  0  0  0  0  0  0  0  0  0  0  0
    1.4289   -2.4750    0.0000 C   0  0  0  0  0  0  0  0  0  0  0  0
    2.0964   -2.9599    0.0000 N   0  0  0  0  0  0  0  0  0  0  0  0
    1.8414   -3.7445    0.0000 C   0  0  0  0  0  0  0  0  0  0  0  0
    1.0164   -3.7445    0.0000 C   0  0  0  0  0  0  0  0  0  0  0  0
    0.7615   -2.9599    0.0000 N   0  0  0  0  0  0  0  0  0  0  0  0
  1  2  2  0  0  0  0
  2  3  1  0  0  0  0
  3  4  2  0  0  0  0
  4  5  1  0  0  0  0
  5  6  2  0  0  0  0
  1  6  1  0  0  0  0
  5  7  1  0  0  0  0
  7  8  1  0  0  0  0
  8  9  1  0  0  0  0
  9 10  1  0  0  0  0
  4 10  1  0  0  0  0
 10 11  1  0  0  0  0
 11 12  2  0  0  0  0
 12 13  1  0  0  0  0
 13 14  1  0  0  0  0
 14 15  1  0  0  0  0
 11 15  1  0  0  0  0
M  END
>  <StandardizerResult>
Tautomerize


>  <CdId>
203

>  <Mol Weight>
200.28

>  <Formula>
C13H16N2

>  <Molecule ChEMBL ID>
CHEMBL1266

>  <Molecule Name>
TETRAHYDROZOLINE

>  <Molecule Max Phase>
4

>  <Molecular Weight>
200.28

>  <#RO5 Violations>
0

>  <AlogP>
2.11

>  <Compound Key>
1380

>  <Standard Type>
pKa_B1

>  <Standard Value>
10.6

>  <Comment>
'B1 Functional Group: 1H-imidazole, 4,5-dihydro-; Ionisation Formula: A0B1 (Functional Group: the part of the molecule the pKa refers to; Ionisation formula: AxBy where 'A' refers to acidic centers within the molecule that are appreciably ionised at a pH <= 11 and 'x' equals 0, 1 or 2; and 'B' refers to basic centers within the molecule that are appreciably ionised at a pH >= 2 and 'y' equals 0, 1, 2 or 3).'

>  <Potential Duplicate>
false

>  <Assay ChEMBL ID>
CHEMBL3301362

>  <Assay Description>
ASTRAZENECA: Most basic pKa value (pKa B1) determined by absorption and potentiometric titration using standard methodology from Sirius Analytical. Experimental range Bases: >= 2.

>  <Assay Type>
P

>  <BAO Format ID>
BAO_0000100

>  <BAO Label>
small-molecule physicochemical format

>  <Target ChEMBL ID>
CHEMBL2362975

>  <Target Name>
No relevant target

>  <Target Type>
NO TARGET

>  <Document ChEMBL ID>
CHEMBL3301361

>  <Source ID>
27

>  <Source Description>
AstraZeneca Deposited Data

>  <Strongest basic pKa>
10.17

>  <deltapKa>
0.4333298481880927

>  <Strongest basic pKa_Taut>
10.17

>  <deltapKa_TAut>
0.4333298481880927

$$$$

  Mrv1920 03272013312D          

 15 16  0  0  0  0            999 V2000
    0.7145   -0.4125    0.0000 C   0  0  0  0  0  0  0  0  0  0  0  0
    0.7145   -1.2375    0.0000 C   0  0  0  0  0  0  0  0  0  0  0  0
    1.4289   -1.6500    0.0000 C   0  0  0  0  0  0  0  0  0  0  0  0
    2.1434   -1.2375    0.0000 O   0  0  0  0  0  0  0  0  0  0  0  0
    1.4289   -2.4750    0.0000 N   0  0  0  0  0  0  0  0  0  0  0  0
    0.7145   -2.8875    0.0000 C   0  0  0  0  0  0  0  0  0  0  0  0
    0.7145   -3.7125    0.0000 N   0  0  0  0  0  0  0  0  0  0  0  0
    0.0000   -2.4750    0.0000 N   0  0  0  0  0  0  0  0  0  0  0  0
    0.0000   -1.6500    0.0000 C   0  0  0  0  0  0  0  0  0  0  0  0
   -0.7145   -1.2375    0.0000 C   0  0  0  0  0  0  0  0  0  0  0  0
   -1.4289   -1.6500    0.0000 C   0  0  0  0  0  0  0  0  0  0  0  0
   -2.1434   -1.2375    0.0000 C   0  0  0  0  0  0  0  0  0  0  0  0
   -2.1434   -0.4125    0.0000 C   0  0  0  0  0  0  0  0  0  0  0  0
   -1.4289    0.0000    0.0000 C   0  0  0  0  0  0  0  0  0  0  0  0
   -0.7145   -0.4125    0.0000 C   0  0  0  0  0  0  0  0  0  0  0  0
  1  2  1  0  0  0  0
  2  3  1  0  0  0  0
  3  4  2  0  0  0  0
  3  5  1  0  0  0  0
  5  6  2  0  0  0  0
  6  7  1  0  0  0  0
  6  8  1  0  0  0  0
  8  9  1  0  0  0  0
  2  9  2  0  0  0  0
  9 10  1  0  0  0  0
 10 11  2  0  0  0  0
 11 12  1  0  0  0  0
 12 13  2  0  0  0  0
 13 14  1  0  0  0  0
 14 15  2  0  0  0  0
 10 15  1  0  0  0  0
M  END
>  <StandardizerResult>
Tautomerize


>  <CdId>
255

>  <Mol Weight>
201.23

>  <Formula>
C11H11N3O

>  <Molecule ChEMBL ID>
CHEMBL432733

>  <Molecule Max Phase>
0

>  <Molecular Weight>
201.23

>  <#RO5 Violations>
0

>  <AlogP>
1.74

>  <Compound Key>
652

>  <Standard Type>
pKa_B1

>  <Standard Value>
4.37

>  <Comment>
'B1 Functional Group: 5-Methylpyrimidin-4-ol, 2-amino-; Ionisation Formula: A1B1 (Functional Group: the part of the molecule the pKa refers to; Ionisation formula: AxBy where 'A' refers to acidic centers within the molecule that are appreciably ionised at a pH <= 11 and 'x' equals 0, 1 or 2; and 'B' refers to basic centers within the molecule that are appreciably ionised at a pH >= 2 and 'y' equals 0, 1, 2 or 3).'

>  <Potential Duplicate>
false

>  <Assay ChEMBL ID>
CHEMBL3301362

>  <Assay Description>
ASTRAZENECA: Most basic pKa value (pKa B1) determined by absorption and potentiometric titration using standard methodology from Sirius Analytical. Experimental range Bases: >= 2.

>  <Assay Type>
P

>  <BAO Format ID>
BAO_0000100

>  <BAO Label>
small-molecule physicochemical format

>  <Target ChEMBL ID>
CHEMBL2362975

>  <Target Name>
No relevant target

>  <Target Type>
NO TARGET

>  <Document ChEMBL ID>
CHEMBL3301361

>  <Source ID>
27

>  <Source Description>
AstraZeneca Deposited Data

>  <Strongest basic pKa>
2.51

>  <deltapKa>
1.8602092707369238

>  <Strongest basic pKa_Taut>
3.93

>  <deltapKa_TAut>
0.4414876045639313

$$$$

  Mrv1920 03272013312D          

 33 38  0  0  0  0            999 V2000
    2.5977    4.0962    0.0000 C   0  0  0  0  0  0  0  0  0  0  0  0
    3.0826    3.4287    0.0000 C   0  0  0  0  0  0  0  0  0  0  0  0
    3.9031    3.5150    0.0000 C   0  0  0  0  0  0  0  0  0  0  0  0
    2.7471    2.6751    0.0000 N   0  0  0  0  0  0  0  0  0  0  0  0
    3.2320    2.0076    0.0000 C   0  0  0  0  0  0  0  0  0  0  0  0
    2.8964    1.2540    0.0000 C   0  0  0  0  0  0  0  0  0  0  0  0
    2.0759    1.1677    0.0000 N   0  0  0  0  0  0  0  0  0  0  0  0
    1.7404    0.4140    0.0000 C   0  0  0  0  0  0  0  0  0  0  0  0
    2.2253   -0.2534    0.0000 C   0  0  0  0  0  0  0  0  0  0  0  0
    3.0503   -0.2534    0.0000 C   0  0  0  0  0  0  0  0  0  0  0  0
    3.3053   -1.0380    0.0000 N   0  0  0  0  0  0  0  0  0  0  0  0
    2.6378   -1.5229    0.0000 C   0  0  0  0  0  0  0  0  0  0  0  0
    2.6378   -2.3479    0.0000 C   0  0  0  0  0  0  0  0  0  0  0  0
    3.3523   -2.7604    0.0000 C   0  0  0  0  0  0  0  0  0  0  0  0
    3.3523   -3.5854    0.0000 C   0  0  0  0  0  0  0  0  0  0  0  0
    4.0668   -3.9979    0.0000 C   0  0  0  0  0  0  0  0  0  0  0  0
    4.7812   -3.5854    0.0000 C   0  0  0  0  0  0  0  0  0  0  0  0
    5.4957   -3.9979    0.0000 C   0  0  0  0  0  0  0  0  0  0  0  0
    5.4957   -4.8229    0.0000 C   0  0  0  0  0  0  0  0  0  0  0  0
    4.7812   -5.2354    0.0000 C   0  0  0  0  0  0  0  0  0  0  0  0
    4.6097   -6.0424    0.0000 N   0  0  0  0  0  0  0  0  0  0  0  0
    3.7892   -6.1287    0.0000 C   0  0  0  0  0  0  0  0  0  0  0  0
    3.4537   -5.3750    0.0000 C   0  0  0  0  0  0  0  0  0  0  0  0
    4.0668   -4.8229    0.0000 C   0  0  0  0  0  0  0  0  0  0  0  0
    2.6378   -3.9979    0.0000 C   0  0  0  0  0  0  0  0  0  0  0  0
    1.9233   -3.5854    0.0000 C   0  0  0  0  0  0  0  0  0  0  0  0
    1.1387   -3.8404    0.0000 N   0  0  0  0  0  0  0  0  0  0  0  0
    0.6538   -3.1729    0.0000 N   0  0  0  0  0  0  0  0  0  0  0  0
    1.1387   -2.5055    0.0000 C   0  0  0  0  0  0  0  0  0  0  0  0
    1.9233   -2.7604    0.0000 C   0  0  0  0  0  0  0  0  0  0  0  0
    1.9704   -1.0380    0.0000 O   0  0  0  0  0  0  0  0  0  0  0  0
    1.5910    1.8352    0.0000 C   0  0  0  0  0  0  0  0  0  0  0  0
    1.9266    2.5888    0.0000 C   0  0  0  0  0  0  0  0  0  0  0  0
  1  2  1  0  0  0  0
  2  3  1  0  0  0  0
  2  4  1  0  0  0  0
  4  5  1  0  0  0  0
  5  6  1  0  0  0  0
  6  7  1  0  0  0  0
  7  8  1  0  0  0  0
  8  9  1  0  0  0  0
  9 10  2  0  0  0  0
 10 11  1  0  0  0  0
 11 12  2  0  0  0  0
 12 13  1  0  0  0  0
 13 14  2  0  0  0  0
 14 15  1  0  0  0  0
 15 16  1  0  0  0  0
 16 17  1  0  0  0  0
 17 18  2  0  0  0  0
 18 19  1  0  0  0  0
 19 20  2  0  0  0  0
 20 21  1  0  0  0  0
 21 22  1  0  0  0  0
 22 23  2  0  0  0  0
 23 24  1  0  0  0  0
 16 24  2  0  0  0  0
 20 24  1  0  0  0  0
 15 25  2  0  0  0  0
 25 26  1  0  0  0  0
 26 27  2  0  0  0  0
 27 28  1  0  0  0  0
 28 29  1  0  0  0  0
 29 30  2  0  0  0  0
 13 30  1  0  0  0  0
 26 30  1  0  0  0  0
 12 31  1  0  0  0  0
  9 31  1  0  0  0  0
  7 32  1  0  0  0  0
 32 33  1  0  0  0  0
  4 33  1  0  0  0  0
M  END
>  <StandardizerResult>
Tautomerize


>  <CdId>
179

>  <Mol Weight>
440.55

>  <Formula>
C26H28N6O

>  <Molecule ChEMBL ID>
CHEMBL2216859

>  <Molecule Name>
NEMIRALISIB

>  <Molecule Max Phase>
2

>  <Molecular Weight>
440.55

>  <#RO5 Violations>
0

>  <AlogP>
4.89

>  <Compound Key>
5882

>  <Standard Type>
pKa_B1

>  <Standard Value>
8.26

>  <Comment>
'B1 Functional Group: Piperazine; Ionisation Formula: A0B2 (Functional Group: the part of the molecule the pKa refers to; Ionisation formula: AxBy where 'A' refers to acidic centers within the molecule that are appreciably ionised at a pH <= 11 and 'x' equals 0, 1 or 2; and 'B' refers to basic centers within the molecule that are appreciably ionised at a pH >= 2 and 'y' equals 0, 1, 2 or 3).'

>  <Potential Duplicate>
false

>  <Assay ChEMBL ID>
CHEMBL3301362

>  <Assay Description>
ASTRAZENECA: Most basic pKa value (pKa B1) determined by absorption and potentiometric titration using standard methodology from Sirius Analytical. Experimental range Bases: >= 2.

>  <Assay Type>
P

>  <BAO Format ID>
BAO_0000100

>  <BAO Label>
small-molecule physicochemical format

>  <Target ChEMBL ID>
CHEMBL2362975

>  <Target Name>
No relevant target

>  <Target Type>
NO TARGET

>  <Document ChEMBL ID>
CHEMBL3301361

>  <Source ID>
27

>  <Source Description>
AstraZeneca Deposited Data

>  <Strongest basic pKa>
7.82

>  <deltapKa>
0.44472898360314606

>  <Strongest basic pKa_Taut>
7.82

>  <deltapKa_TAut>
0.44467057452209424

$$$$

  Mrv1920 03272013312D          

 12 13  0  0  0  0            999 V2000
   -0.1067    5.5902    0.0000 C   0  0  0  0  0  0  0  0  0  0  0  0
    0.6078    6.0027    0.0000 C   0  0  0  0  0  0  0  0  0  0  0  0
    1.3222    5.5902    0.0000 C   0  0  0  0  0  0  0  0  0  0  0  0
    1.3222    4.7652    0.0000 C   0  0  0  0  0  0  0  0  0  0  0  0
    2.0367    4.3527    0.0000 C   0  0  0  0  0  0  0  0  0  0  0  0
    2.0367    3.5277    0.0000 C   0  0  0  0  0  0  0  0  0  0  0  0
    2.7041    3.0428    0.0000 N   0  0  0  0  0  0  0  0  0  0  0  0
    2.4492    2.2581    0.0000 C   0  0  0  0  0  0  0  0  0  0  0  0
    1.6242    2.2581    0.0000 C   0  0  0  0  0  0  0  0  0  0  0  0
    1.3693    3.0428    0.0000 N   0  0  0  0  0  0  0  0  0  0  0  0
    0.6078    4.3527    0.0000 C   0  0  0  0  0  0  0  0  0  0  0  0
   -0.1067    4.7652    0.0000 C   0  0  0  0  0  0  0  0  0  0  0  0
  1  2  2  0  0  0  0
  2  3  1  0  0  0  0
  3  4  2  0  0  0  0
  4  5  1  0  0  0  0
  5  6  1  0  0  0  0
  6  7  2  0  0  0  0
  7  8  1  0  0  0  0
  8  9  1  0  0  0  0
  9 10  1  0  0  0  0
  6 10  1  0  0  0  0
  4 11  1  0  0  0  0
 11 12  2  0  0  0  0
  1 12  1  0  0  0  0
M  END
>  <StandardizerResult>
Tautomerize


>  <CdId>
243

>  <Mol Weight>
160.22

>  <Formula>
C10H12N2

>  <Molecule ChEMBL ID>
CHEMBL770

>  <Molecule Name>
TOLAZOLINE

>  <Molecule Max Phase>
4

>  <Molecular Weight>
160.22

>  <#RO5 Violations>
0

>  <AlogP>
1.23

>  <Compound Key>
238

>  <Standard Type>
pKa_B1

>  <Standard Value>
10.7

>  <Comment>
'B1 Functional Group: 1H-imidazole, 4,5-dihydro-; Ionisation Formula: A0B1 (Functional Group: the part of the molecule the pKa refers to; Ionisation formula: AxBy where 'A' refers to acidic centers within the molecule that are appreciably ionised at a pH <= 11 and 'x' equals 0, 1 or 2; and 'B' refers to basic centers within the molecule that are appreciably ionised at a pH >= 2 and 'y' equals 0, 1, 2 or 3).'

>  <Potential Duplicate>
false

>  <Assay ChEMBL ID>
CHEMBL3301362

>  <Assay Description>
ASTRAZENECA: Most basic pKa value (pKa B1) determined by absorption and potentiometric titration using standard methodology from Sirius Analytical. Experimental range Bases: >= 2.

>  <Assay Type>
P

>  <BAO Format ID>
BAO_0000100

>  <BAO Label>
small-molecule physicochemical format

>  <Target ChEMBL ID>
CHEMBL2362975

>  <Target Name>
No relevant target

>  <Target Type>
NO TARGET

>  <Document ChEMBL ID>
CHEMBL3301361

>  <Source ID>
27

>  <Source Description>
AstraZeneca Deposited Data

>  <Strongest basic pKa>
10.25

>  <deltapKa>
0.4523226564764986

>  <Strongest basic pKa_Taut>
10.25

>  <deltapKa_TAut>
0.4523226564764986

$$$$

  Mrv1920 03272013312D          

 24 26  0  0  1  0            999 V2000
    2.5600    0.7927    0.0000 C   0  0  0  0  0  0  0  0  0  0  0  0
    1.9469    1.3448    0.0000 C   0  0  0  0  0  0  0  0  0  0  0  0
    2.5600    1.8968    0.0000 C   0  0  0  0  0  0  0  0  0  0  0  0
    1.4620    0.6773    0.0000 S   0  0  0  0  0  0  0  0  0  0  0  0
    0.6773    0.9323    0.0000 C   0  0  2  0  0  0  0  0  0  0  0  0
   -0.1477    0.9323    0.0000 C   0  0  2  0  0  0  0  0  0  0  0  0
   -0.7310    0.3489    0.0000 N   0  0  0  0  0  0  0  0  0  0  0  0
   -1.5279    0.5624    0.0000 C   0  0  0  0  0  0  0  0  0  0  0  0
   -1.7414    1.3593    0.0000 O   0  0  0  0  0  0  0  0  0  0  0  0
   -2.1113   -0.0209    0.0000 C   0  0  2  0  0  0  0  0  0  0  0  0
   -1.8977   -0.8178    0.0000 N   0  0  0  0  0  0  0  0  0  0  0  0
   -2.9082    0.1926    0.0000 C   0  0  0  0  0  0  0  0  0  0  0  0
   -3.4915   -0.3908    0.0000 C   0  0  0  0  0  0  0  0  0  0  0  0
   -4.2884   -0.1772    0.0000 C   0  0  0  0  0  0  0  0  0  0  0  0
   -4.5019    0.6197    0.0000 C   0  0  0  0  0  0  0  0  0  0  0  0
   -3.9186    1.2030    0.0000 C   0  0  0  0  0  0  0  0  0  0  0  0
   -3.1217    0.9895    0.0000 C   0  0  0  0  0  0  0  0  0  0  0  0
   -0.1477    1.7573    0.0000 C   0  0  0  0  0  0  0  0  0  0  0  0
   -0.7310    2.3406    0.0000 O   0  0  0  0  0  0  0  0  0  0  0  0
    0.6773    1.7573    0.0000 N   0  0  0  0  0  0  0  0  0  0  0  0
    1.4620    2.0122    0.0000 C   0  0  1  0  0  0  0  0  0  0  0  0
    1.7169    2.7968    0.0000 C   0  0  0  0  0  0  0  0  0  0  0  0
    1.1649    3.4099    0.0000 O   0  0  0  0  0  0  0  0  0  0  0  0
    2.5239    2.9684    0.0000 O   0  0  0  0  0  0  0  0  0  0  0  0
  1  2  1  0  0  0  0
  2  3  1  0  0  0  0
  2  4  1  0  0  0  0
  5  4  1  0  0  0  0
  5  6  1  0  0  0  0
  6  7  1  6  0  0  0
  7  8  1  0  0  0  0
  8  9  2  0  0  0  0
 10  8  1  0  0  0  0
 10 11  1  6  0  0  0
 10 12  1  0  0  0  0
 12 13  2  0  0  0  0
 13 14  1  0  0  0  0
 14 15  2  0  0  0  0
 15 16  1  0  0  0  0
 16 17  2  0  0  0  0
 12 17  1  0  0  0  0
  6 18  1  0  0  0  0
 18 19  2  0  0  0  0
 18 20  1  0  0  0  0
  5 20  1  6  0  0  0
 21 20  1  0  0  0  0
 21  2  1  0  0  0  0
 21 22  1  1  0  0  0
 22 23  2  0  0  0  0
 22 24  1  0  0  0  0
M  END
>  <StandardizerResult>
Tautomerize


>  <CdId>
189

>  <Mol Weight>
349.41

>  <Formula>
C16H19N3O4S

>  <Molecule ChEMBL ID>
CHEMBL174

>  <Molecule Name>
AMPICILLIN

>  <Molecule Max Phase>
4

>  <Molecular Weight>
349.41

>  <#RO5 Violations>
0

>  <AlogP>
0.32

>  <Compound Key>
Ampicillin

>  <Standard Type>
pKa_B1

>  <Standard Value>
7.7

>  <Comment>
'B1 Functional Group: Primary amine; Ionisation Formula: A1B1 (Functional Group: the part of the molecule the pKa refers to; Ionisation formula: AxBy where 'A' refers to acidic centers within the molecule that are appreciably ionised at a pH <= 11 and 'x' equals 0, 1 or 2; and 'B' refers to basic centers within the molecule that are appreciably ionised at a pH >= 2 and 'y' equals 0, 1, 2 or 3).'

>  <Potential Duplicate>
false

>  <Assay ChEMBL ID>
CHEMBL3301362

>  <Assay Description>
ASTRAZENECA: Most basic pKa value (pKa B1) determined by absorption and potentiometric titration using standard methodology from Sirius Analytical. Experimental range Bases: >= 2.

>  <Assay Type>
P

>  <BAO Format ID>
BAO_0000100

>  <BAO Label>
small-molecule physicochemical format

>  <Target ChEMBL ID>
CHEMBL2362975

>  <Target Name>
No relevant target

>  <Target Type>
NO TARGET

>  <Document ChEMBL ID>
CHEMBL3301361

>  <Source ID>
27

>  <Source Description>
AstraZeneca Deposited Data

>  <Strongest basic pKa>
7.23

>  <deltapKa>
0.4714640661178473

>  <Strongest basic pKa_Taut>
7.23

>  <deltapKa_TAut>
0.4714640661178473

$$$$

  Mrv1920 03272013312D          

 34 37  0  0  1  0            999 V2000
    1.4289    2.4750    0.0000 C   0  0  0  0  0  0  0  0  0  0  0  0
    0.7145    2.0625    0.0000 C   0  0  0  0  0  0  0  0  0  0  0  0
    0.7145    1.2375    0.0000 C   0  0  0  0  0  0  0  0  0  0  0  0
    0.0000    0.8250    0.0000 C   0  0  0  0  0  0  0  0  0  0  0  0
    0.0000    0.0000    0.0000 C   0  0  0  0  0  0  0  0  0  0  0  0
    0.7145   -0.4125    0.0000 N   0  0  0  0  0  0  0  0  0  0  0  0
    1.4289    0.0000    0.0000 C   0  0  0  0  0  0  0  0  0  0  0  0
    2.1434   -0.4125    0.0000 C   0  0  0  0  0  0  0  0  0  0  0  0
    2.8579    0.0000    0.0000 C   0  0  0  0  0  0  0  0  0  0  0  0
    3.5724   -0.4125    0.0000 C   0  0  0  0  0  0  0  0  0  0  0  0
    3.5724   -1.2375    0.0000 C   0  0  0  0  0  0  0  0  0  0  0  0
    2.8579   -1.6500    0.0000 C   0  0  0  0  0  0  0  0  0  0  0  0
    2.1434   -1.2375    0.0000 C   0  0  0  0  0  0  0  0  0  0  0  0
    1.4289   -1.6500    0.0000 C   0  0  0  0  0  0  0  0  0  0  0  0
    0.7145   -1.2375    0.0000 C   0  0  1  0  0  0  0  0  0  0  0  0
    0.0000   -1.6500    0.0000 C   0  0  0  0  0  0  0  0  0  0  0  0
   -0.7145   -1.2375    0.0000 O   0  0  0  0  0  0  0  0  0  0  0  0
    0.0000   -2.4750    0.0000 N   0  0  0  0  0  0  0  0  0  0  0  0
    0.7145   -2.8875    0.0000 C   0  0  0  0  0  0  0  0  0  0  0  0
    1.4289   -2.4750    0.0000 C   0  0  0  0  0  0  0  0  0  0  0  0
    2.1434   -2.8875    0.0000 C   0  0  0  0  0  0  0  0  0  0  0  0
    2.1434   -3.7125    0.0000 C   0  0  0  0  0  0  0  0  0  0  0  0
    2.8579   -4.1250    0.0000 Cl  0  0  0  0  0  0  0  0  0  0  0  0
    1.4289   -4.1250    0.0000 C   0  0  0  0  0  0  0  0  0  0  0  0
    0.7145   -3.7125    0.0000 C   0  0  0  0  0  0  0  0  0  0  0  0
    0.0000   -4.1250    0.0000 Cl  0  0  0  0  0  0  0  0  0  0  0  0
   -0.7145    1.2375    0.0000 C   0  0  0  0  0  0  0  0  0  0  0  0
   -0.7145    2.0625    0.0000 C   0  0  0  0  0  0  0  0  0  0  0  0
    0.0000    2.4750    0.0000 C   0  0  0  0  0  0  0  0  0  0  0  0
    0.0000    3.3000    0.0000 O   0  0  0  0  0  0  0  0  0  0  0  0
   -0.7145    3.7125    0.0000 C   0  0  0  0  0  0  0  0  0  0  0  0
   -0.7145    4.5375    0.0000 C   0  0  0  0  0  0  0  0  0  0  0  0
    0.0000    4.9500    0.0000 O   0  0  0  0  0  0  0  0  0  0  0  0
   -1.4289    4.9500    0.0000 O   0  0  0  0  0  0  0  0  0  0  0  0
  1  2  1  0  0  0  0
  2  3  2  0  0  0  0
  3  4  1  0  0  0  0
  4  5  1  0  0  0  0
  5  6  1  0  0  0  0
  6  7  1  0  0  0  0
  7  8  1  0  0  0  0
  8  9  2  0  0  0  0
  9 10  1  0  0  0  0
 10 11  2  0  0  0  0
 11 12  1  0  0  0  0
 12 13  2  0  0  0  0
  8 13  1  0  0  0  0
 13 14  1  0  0  0  0
 15 14  1  0  0  0  0
 15  6  1  0  0  0  0
 15 16  1  1  0  0  0
 16 17  2  0  0  0  0
 16 18  1  0  0  0  0
 18 19  1  0  0  0  0
 19 20  2  0  0  0  0
 20 21  1  0  0  0  0
 21 22  2  0  0  0  0
 22 23  1  0  0  0  0
 22 24  1  0  0  0  0
 24 25  2  0  0  0  0
 19 25  1  0  0  0  0
 25 26  1  0  0  0  0
  4 27  2  0  0  0  0
 27 28  1  0  0  0  0
 28 29  2  0  0  0  0
  2 29  1  0  0  0  0
 29 30  1  0  0  0  0
 30 31  1  0  0  0  0
 31 32  1  0  0  0  0
 32 33  2  0  0  0  0
 32 34  1  0  0  0  0
M  END
>  <StandardizerResult>
Tautomerize


>  <CdId>
66

>  <Mol Weight>
499.39

>  <Formula>
C26H24Cl2N2O4

>  <Molecule ChEMBL ID>
CHEMBL1643200

>  <Molecule Max Phase>
0

>  <Molecular Weight>
499.39

>  <#RO5 Violations>
1

>  <AlogP>
5.33

>  <Compound Key>
5349

>  <Standard Type>
pKa_B1

>  <Standard Value>
6.2

>  <Comment>
'B1 Functional Group: 1,2,3,4-tetrahydroisoquinoline; Ionisation Formula: A1B1 (Functional Group: the part of the molecule the pKa refers to; Ionisation formula: AxBy where 'A' refers to acidic centers within the molecule that are appreciably ionised at a pH <= 11 and 'x' equals 0, 1 or 2; and 'B' refers to basic centers within the molecule that are appreciably ionised at a pH >= 2 and 'y' equals 0, 1, 2 or 3).'

>  <Potential Duplicate>
false

>  <Assay ChEMBL ID>
CHEMBL3301362

>  <Assay Description>
ASTRAZENECA: Most basic pKa value (pKa B1) determined by absorption and potentiometric titration using standard methodology from Sirius Analytical. Experimental range Bases: >= 2.

>  <Assay Type>
P

>  <BAO Format ID>
BAO_0000100

>  <BAO Label>
small-molecule physicochemical format

>  <Target ChEMBL ID>
CHEMBL2362975

>  <Target Name>
No relevant target

>  <Target Type>
NO TARGET

>  <Document ChEMBL ID>
CHEMBL3301361

>  <Source ID>
27

>  <Source Description>
AstraZeneca Deposited Data

>  <Strongest basic pKa>
5.72

>  <deltapKa>
0.4771655410961362

>  <Strongest basic pKa_Taut>
5.72

>  <deltapKa_TAut>
0.4771655410961362

$$$$

  Mrv1920 03272013312D          

 11 12  0  0  0  0            999 V2000
    1.4289   -2.4750    0.0000 N   0  0  0  0  0  0  0  0  0  0  0  0
    1.4289   -1.6500    0.0000 C   0  0  0  0  0  0  0  0  0  0  0  0
    0.7145   -1.2375    0.0000 N   0  0  0  0  0  0  0  0  0  0  0  0
    0.7145   -0.4125    0.0000 C   0  0  0  0  0  0  0  0  0  0  0  0
    1.4289    0.0000    0.0000 C   0  0  0  0  0  0  0  0  0  0  0  0
    2.1434   -0.4125    0.0000 C   0  0  0  0  0  0  0  0  0  0  0  0
    2.8579    0.0000    0.0000 C   0  0  0  0  0  0  0  0  0  0  0  0
    3.5724   -0.4125    0.0000 C   0  0  0  0  0  0  0  0  0  0  0  0
    3.5724   -1.2375    0.0000 C   0  0  0  0  0  0  0  0  0  0  0  0
    2.8579   -1.6500    0.0000 C   0  0  0  0  0  0  0  0  0  0  0  0
    2.1434   -1.2375    0.0000 C   0  0  0  0  0  0  0  0  0  0  0  0
  1  2  1  0  0  0  0
  2  3  2  0  0  0  0
  3  4  1  0  0  0  0
  4  5  2  0  0  0  0
  5  6  1  0  0  0  0
  6  7  2  0  0  0  0
  7  8  1  0  0  0  0
  8  9  2  0  0  0  0
  9 10  1  0  0  0  0
 10 11  2  0  0  0  0
  2 11  1  0  0  0  0
  6 11  1  0  0  0  0
M  END
>  <StandardizerResult>
Tautomerize


>  <CdId>
93

>  <Mol Weight>
144.18

>  <Formula>
C9H8N2

>  <Molecule ChEMBL ID>
CHEMBL62083

>  <Molecule Max Phase>
0

>  <Molecular Weight>
144.18

>  <#RO5 Violations>
0

>  <AlogP>
1.82

>  <Compound Key>
569

>  <Standard Type>
pKa_B1

>  <Standard Value>
7.6

>  <Comment>
'B1 Functional Group: 1-Isoquinolinamine; Ionisation Formula: A0B1 (Functional Group: the part of the molecule the pKa refers to; Ionisation formula: AxBy where 'A' refers to acidic centers within the molecule that are appreciably ionised at a pH <= 11 and 'x' equals 0, 1 or 2; and 'B' refers to basic centers within the molecule that are appreciably ionised at a pH >= 2 and 'y' equals 0, 1, 2 or 3).'

>  <Potential Duplicate>
false

>  <Assay ChEMBL ID>
CHEMBL3301362

>  <Assay Description>
ASTRAZENECA: Most basic pKa value (pKa B1) determined by absorption and potentiometric titration using standard methodology from Sirius Analytical. Experimental range Bases: >= 2.

>  <Assay Type>
P

>  <BAO Format ID>
BAO_0000100

>  <BAO Label>
small-molecule physicochemical format

>  <Target ChEMBL ID>
CHEMBL2362975

>  <Target Name>
No relevant target

>  <Target Type>
NO TARGET

>  <Document ChEMBL ID>
CHEMBL3301361

>  <Source ID>
27

>  <Source Description>
AstraZeneca Deposited Data

>  <Strongest basic pKa>
7.12

>  <deltapKa>
0.47798330987556614

>  <Strongest basic pKa_Taut>
7.12

>  <deltapKa_TAut>
0.47798330987556614

$$$$

  Mrv1920 03272013312D          

 28 31  0  0  0  0            999 V2000
   -1.2400   -4.0623    0.0000 C   0  0  0  0  0  0  0  0  0  0  0  0
   -0.6880   -4.6754    0.0000 O   0  0  0  0  0  0  0  0  0  0  0  0
    0.1190   -4.5039    0.0000 C   0  0  0  0  0  0  0  0  0  0  0  0
    0.6710   -5.1170    0.0000 C   0  0  0  0  0  0  0  0  0  0  0  0
    1.4780   -4.9454    0.0000 C   0  0  0  0  0  0  0  0  0  0  0  0
    1.7329   -4.1608    0.0000 C   0  0  0  0  0  0  0  0  0  0  0  0
    2.5399   -3.9893    0.0000 O   0  0  0  0  0  0  0  0  0  0  0  0
    3.0919   -4.6024    0.0000 C   0  0  0  0  0  0  0  0  0  0  0  0
    1.1809   -3.5477    0.0000 C   0  0  0  0  0  0  0  0  0  0  0  0
    1.4358   -2.7631    0.0000 C   0  0  0  0  0  0  0  0  0  0  0  0
    0.8838   -2.1500    0.0000 N   0  0  0  0  0  0  0  0  0  0  0  0
    1.1387   -1.3654    0.0000 C   0  0  0  0  0  0  0  0  0  0  0  0
    0.6538   -0.6979    0.0000 N   0  0  0  0  0  0  0  0  0  0  0  0
    1.1387   -0.0305    0.0000 N   0  0  0  0  0  0  0  0  0  0  0  0
    1.9233   -0.2854    0.0000 C   0  0  0  0  0  0  0  0  0  0  0  0
    2.6378    0.1271    0.0000 C   0  0  0  0  0  0  0  0  0  0  0  0
    3.3523   -0.2854    0.0000 C   0  0  0  0  0  0  0  0  0  0  0  0
    3.3523   -1.1104    0.0000 C   0  0  0  0  0  0  0  0  0  0  0  0
    2.6378   -1.5229    0.0000 C   0  0  0  0  0  0  0  0  0  0  0  0
    2.6378   -2.3479    0.0000 O   0  0  0  0  0  0  0  0  0  0  0  0
    3.3523   -2.7604    0.0000 C   0  0  0  0  0  0  0  0  0  0  0  0
    4.0668   -2.3479    0.0000 C   0  0  0  0  0  0  0  0  0  0  0  0
    4.7812   -2.7604    0.0000 C   0  0  0  0  0  0  0  0  0  0  0  0
    4.7812   -3.5854    0.0000 C   0  0  0  0  0  0  0  0  0  0  0  0
    4.0668   -3.9979    0.0000 C   0  0  0  0  0  0  0  0  0  0  0  0
    3.3523   -3.5854    0.0000 C   0  0  0  0  0  0  0  0  0  0  0  0
    1.9233   -1.1104    0.0000 C   0  0  0  0  0  0  0  0  0  0  0  0
    0.3739   -3.7192    0.0000 C   0  0  0  0  0  0  0  0  0  0  0  0
  1  2  1  0  0  0  0
  2  3  1  0  0  0  0
  3  4  2  0  0  0  0
  4  5  1  0  0  0  0
  5  6  2  0  0  0  0
  6  7  1  0  0  0  0
  7  8  1  0  0  0  0
  6  9  1  0  0  0  0
  9 10  1  0  0  0  0
 10 11  1  0  0  0  0
 11 12  1  0  0  0  0
 12 13  1  0  0  0  0
 13 14  1  0  0  0  0
 14 15  2  0  0  0  0
 15 16  1  0  0  0  0
 16 17  2  0  0  0  0
 17 18  1  0  0  0  0
 18 19  2  0  0  0  0
 19 20  1  0  0  0  0
 20 21  1  0  0  0  0
 21 22  2  0  0  0  0
 22 23  1  0  0  0  0
 23 24  2  0  0  0  0
 24 25  1  0  0  0  0
 25 26  2  0  0  0  0
 21 26  1  0  0  0  0
 19 27  1  0  0  0  0
 12 27  2  0  0  0  0
 15 27  1  0  0  0  0
  9 28  2  0  0  0  0
  3 28  1  0  0  0  0
M  END
>  <StandardizerResult>
Tautomerize


>  <CdId>
2

>  <Mol Weight>
375.43

>  <Formula>
C22H21N3O3

>  <Molecule ChEMBL ID>
CHEMBL359806

>  <Molecule Max Phase>
0

>  <Molecular Weight>
375.43

>  <#RO5 Violations>
0

>  <AlogP>
4.98

>  <Compound Key>
1695

>  <Standard Type>
pKa_B1

>  <Standard Value>
3.8

>  <Comment>
'B1 Functional Group: 2H-indazol-3-amine; Ionisation Formula: A0B1 (Functional Group: the part of the molecule the pKa refers to; Ionisation formula: AxBy where 'A' refers to acidic centers within the molecule that are appreciably ionised at a pH <= 11 and 'x' equals 0, 1 or 2; and 'B' refers to basic centers within the molecule that are appreciably ionised at a pH >= 2 and 'y' equals 0, 1, 2 or 3).'

>  <Potential Duplicate>
false

>  <Assay ChEMBL ID>
CHEMBL3301362

>  <Assay Description>
ASTRAZENECA: Most basic pKa value (pKa B1) determined by absorption and potentiometric titration using standard methodology from Sirius Analytical. Experimental range Bases: >= 2.

>  <Assay Type>
P

>  <BAO Format ID>
BAO_0000100

>  <BAO Label>
small-molecule physicochemical format

>  <Target ChEMBL ID>
CHEMBL2362975

>  <Target Name>
No relevant target

>  <Target Type>
NO TARGET

>  <Document ChEMBL ID>
CHEMBL3301361

>  <Source ID>
27

>  <Source Description>
AstraZeneca Deposited Data

>  <Strongest basic pKa>
3.32

>  <deltapKa>
0.4814833134041958

>  <Strongest basic pKa_Taut>
3.32

>  <deltapKa_TAut>
0.4814833134041958

$$$$

  Mrv1920 03272013312D          

 27 29  0  0  0  0            999 V2000
   -4.2868   -5.7750    0.0000 O   0  0  0  0  0  0  0  0  0  0  0  0
   -3.5724   -5.3625    0.0000 C   0  0  0  0  0  0  0  0  0  0  0  0
   -3.5724   -4.5375    0.0000 O   0  0  0  0  0  0  0  0  0  0  0  0
   -2.8579   -5.7750    0.0000 C   0  0  0  0  0  0  0  0  0  0  0  0
   -2.1434   -5.3625    0.0000 O   0  0  0  0  0  0  0  0  0  0  0  0
   -1.4289   -5.7750    0.0000 C   0  0  0  0  0  0  0  0  0  0  0  0
   -0.7145   -5.3625    0.0000 C   0  0  0  0  0  0  0  0  0  0  0  0
    0.0000   -5.7750    0.0000 N   0  0  0  0  0  0  0  0  0  0  0  0
    0.7145   -5.3625    0.0000 C   0  0  0  0  0  0  0  0  0  0  0  0
    1.4289   -5.7750    0.0000 C   0  0  0  0  0  0  0  0  0  0  0  0
    1.4289   -6.6000    0.0000 N   0  0  0  0  0  0  0  0  0  0  0  0
    2.1434   -7.0125    0.0000 C   0  0  0  0  0  0  0  0  0  0  0  0
    2.1434   -7.8375    0.0000 C   0  0  0  0  0  0  0  0  0  0  0  0
    2.8579   -8.2500    0.0000 C   0  0  0  0  0  0  0  0  0  0  0  0
    2.8579   -9.0750    0.0000 C   0  0  0  0  0  0  0  0  0  0  0  0
    2.1434   -9.4875    0.0000 C   0  0  0  0  0  0  0  0  0  0  0  0
    1.4289   -9.0750    0.0000 C   0  0  0  0  0  0  0  0  0  0  0  0
    1.4289   -8.2500    0.0000 C   0  0  0  0  0  0  0  0  0  0  0  0
    2.8579   -6.6000    0.0000 C   0  0  0  0  0  0  0  0  0  0  0  0
    2.8579   -5.7750    0.0000 C   0  0  0  0  0  0  0  0  0  0  0  0
    3.5724   -5.3625    0.0000 C   0  0  0  0  0  0  0  0  0  0  0  0
    4.2868   -5.7750    0.0000 C   0  0  0  0  0  0  0  0  0  0  0  0
    5.0013   -5.3625    0.0000 Cl  0  0  0  0  0  0  0  0  0  0  0  0
    4.2868   -6.6000    0.0000 C   0  0  0  0  0  0  0  0  0  0  0  0
    3.5724   -7.0125    0.0000 C   0  0  0  0  0  0  0  0  0  0  0  0
    0.7145   -7.0125    0.0000 C   0  0  0  0  0  0  0  0  0  0  0  0
    0.0000   -6.6000    0.0000 C   0  0  0  0  0  0  0  0  0  0  0  0
  1  2  2  0  0  0  0
  2  3  1  0  0  0  0
  2  4  1  0  0  0  0
  4  5  1  0  0  0  0
  5  6  1  0  0  0  0
  6  7  1  0  0  0  0
  7  8  1  0  0  0  0
  8  9  1  0  0  0  0
  9 10  1  0  0  0  0
 10 11  1  0  0  0  0
 11 12  1  0  0  0  0
 12 13  1  0  0  0  0
 13 14  2  0  0  0  0
 14 15  1  0  0  0  0
 15 16  2  0  0  0  0
 16 17  1  0  0  0  0
 17 18  2  0  0  0  0
 13 18  1  0  0  0  0
 12 19  1  0  0  0  0
 19 20  2  0  0  0  0
 20 21  1  0  0  0  0
 21 22  2  0  0  0  0
 22 23  1  0  0  0  0
 22 24  1  0  0  0  0
 24 25  2  0  0  0  0
 19 25  1  0  0  0  0
 11 26  1  0  0  0  0
 26 27  1  0  0  0  0
  8 27  1  0  0  0  0
M  END
>  <StandardizerResult>
Tautomerize


>  <CdId>
27

>  <Mol Weight>
388.89

>  <Formula>
C21H25ClN2O3

>  <Molecule ChEMBL ID>
CHEMBL1000

>  <Molecule Name>
CETIRIZINE

>  <Molecule Max Phase>
4

>  <Molecular Weight>
388.9

>  <#RO5 Violations>
0

>  <AlogP>
3.15

>  <Compound Key>
1886

>  <Standard Type>
pKa_B1

>  <Standard Value>
7.95

>  <Comment>
'B1 Functional Group: Piperazine; Ionisation Formula: A1B1 (Functional Group: the part of the molecule the pKa refers to; Ionisation formula: AxBy where 'A' refers to acidic centers within the molecule that are appreciably ionised at a pH <= 11 and 'x' equals 0, 1 or 2; and 'B' refers to basic centers within the molecule that are appreciably ionised at a pH >= 2 and 'y' equals 0, 1, 2 or 3).'

>  <Potential Duplicate>
false

>  <Assay ChEMBL ID>
CHEMBL3301362

>  <Assay Description>
ASTRAZENECA: Most basic pKa value (pKa B1) determined by absorption and potentiometric titration using standard methodology from Sirius Analytical. Experimental range Bases: >= 2.

>  <Assay Type>
P

>  <BAO Format ID>
BAO_0000100

>  <BAO Label>
small-molecule physicochemical format

>  <Target ChEMBL ID>
CHEMBL2362975

>  <Target Name>
No relevant target

>  <Target Type>
NO TARGET

>  <Document ChEMBL ID>
CHEMBL3301361

>  <Source ID>
27

>  <Source Description>
AstraZeneca Deposited Data

>  <Strongest basic pKa>
7.42

>  <deltapKa>
0.529970126469065

>  <Strongest basic pKa_Taut>
7.42

>  <deltapKa_TAut>
0.529970126469065

$$$$

  Mrv1920 03272013312D          

 24 26  0  0  0  0            999 V2000
    2.1434   -2.8875    0.0000 C   0  0  0  0  0  0  0  0  0  0  0  0
    1.4289   -2.4750    0.0000 C   0  0  0  0  0  0  0  0  0  0  0  0
    1.4289   -1.6500    0.0000 N   0  0  0  0  0  0  0  0  0  0  0  0
    0.7145   -1.2375    0.0000 C   0  0  0  0  0  0  0  0  0  0  0  0
    0.7145   -0.4125    0.0000 C   0  0  0  0  0  0  0  0  0  0  0  0
    0.0000    0.0000    0.0000 C   0  0  0  0  0  0  0  0  0  0  0  0
    0.0000    0.8250    0.0000 O   0  0  0  0  0  0  0  0  0  0  0  0
   -0.7145   -0.4125    0.0000 O   0  0  0  0  0  0  0  0  0  0  0  0
    1.4289    0.0000    0.0000 C   0  0  0  0  0  0  0  0  0  0  0  0
    1.4289    0.8250    0.0000 O   0  0  0  0  0  0  0  0  0  0  0  0
    2.1434   -0.4125    0.0000 C   0  0  0  0  0  0  0  0  0  0  0  0
    2.8579    0.0000    0.0000 C   0  0  0  0  0  0  0  0  0  0  0  0
    3.5724   -0.4125    0.0000 C   0  0  0  0  0  0  0  0  0  0  0  0
    4.2868    0.0000    0.0000 F   0  0  0  0  0  0  0  0  0  0  0  0
    3.5724   -1.2375    0.0000 C   0  0  0  0  0  0  0  0  0  0  0  0
    4.2868   -1.6500    0.0000 N   0  0  0  0  0  0  0  0  0  0  0  0
    5.0013   -1.2375    0.0000 C   0  0  0  0  0  0  0  0  0  0  0  0
    5.7158   -1.6500    0.0000 C   0  0  0  0  0  0  0  0  0  0  0  0
    5.7158   -2.4750    0.0000 N   0  0  0  0  0  0  0  0  0  0  0  0
    6.4302   -2.8875    0.0000 C   0  0  0  0  0  0  0  0  0  0  0  0
    5.0013   -2.8875    0.0000 C   0  0  0  0  0  0  0  0  0  0  0  0
    4.2868   -2.4750    0.0000 C   0  0  0  0  0  0  0  0  0  0  0  0
    2.8579   -1.6500    0.0000 C   0  0  0  0  0  0  0  0  0  0  0  0
    2.1434   -1.2375    0.0000 C   0  0  0  0  0  0  0  0  0  0  0  0
  1  2  1  0  0  0  0
  2  3  1  0  0  0  0
  3  4  1  0  0  0  0
  4  5  2  0  0  0  0
  5  6  1  0  0  0  0
  6  7  2  0  0  0  0
  6  8  1  0  0  0  0
  5  9  1  0  0  0  0
  9 10  2  0  0  0  0
  9 11  1  0  0  0  0
 11 12  2  0  0  0  0
 12 13  1  0  0  0  0
 13 14  1  0  0  0  0
 13 15  2  0  0  0  0
 15 16  1  0  0  0  0
 16 17  1  0  0  0  0
 17 18  1  0  0  0  0
 18 19  1  0  0  0  0
 19 20  1  0  0  0  0
 19 21  1  0  0  0  0
 21 22  1  0  0  0  0
 16 22  1  0  0  0  0
 15 23  1  0  0  0  0
 23 24  2  0  0  0  0
 11 24  1  0  0  0  0
  3 24  1  0  0  0  0
M  END
>  <StandardizerResult>
Tautomerize


>  <CdId>
51

>  <Mol Weight>
333.36

>  <Formula>
C17H20FN3O3

>  <Molecule ChEMBL ID>
CHEMBL267648

>  <Molecule Name>
PEFLOXACIN

>  <Molecule Max Phase>
4

>  <Molecular Weight>
333.36

>  <#RO5 Violations>
0

>  <AlogP>
1.61

>  <Compound Key>
2969

>  <Standard Type>
pKa_B1

>  <Standard Value>
7.55

>  <Comment>
'B1 Functional Group: Piperazine; Ionisation Formula: A1B1 (Functional Group: the part of the molecule the pKa refers to; Ionisation formula: AxBy where 'A' refers to acidic centers within the molecule that are appreciably ionised at a pH <= 11 and 'x' equals 0, 1 or 2; and 'B' refers to basic centers within the molecule that are appreciably ionised at a pH >= 2 and 'y' equals 0, 1, 2 or 3).'

>  <Potential Duplicate>
false

>  <Assay ChEMBL ID>
CHEMBL3301362

>  <Assay Description>
ASTRAZENECA: Most basic pKa value (pKa B1) determined by absorption and potentiometric titration using standard methodology from Sirius Analytical. Experimental range Bases: >= 2.

>  <Assay Type>
P

>  <BAO Format ID>
BAO_0000100

>  <BAO Label>
small-molecule physicochemical format

>  <Target ChEMBL ID>
CHEMBL2362975

>  <Target Name>
No relevant target

>  <Target Type>
NO TARGET

>  <Document ChEMBL ID>
CHEMBL3301361

>  <Source ID>
27

>  <Source Description>
AstraZeneca Deposited Data

>  <Strongest basic pKa>
7.01

>  <deltapKa>
0.5446461559199625

>  <Strongest basic pKa_Taut>
7.01

>  <deltapKa_TAut>
0.5446461559199625

$$$$

  Mrv1920 03272013312D          

 20 21  0  0  1  0            999 V2000
    0.0000    1.6500    0.0000 N   0  0  0  0  0  0  0  0  0  0  0  0
    0.7145    1.2375    0.0000 C   0  0  0  0  0  0  0  0  0  0  0  0
    1.4289    0.8250    0.0000 C   0  0  0  0  0  0  0  0  0  0  0  0
    2.1434    1.2375    0.0000 C   0  0  0  0  0  0  0  0  0  0  0  0
    2.8579    0.8250    0.0000 C   0  0  0  0  0  0  0  0  0  0  0  0
    2.8579    0.0000    0.0000 C   0  0  0  0  0  0  0  0  0  0  0  0
    3.5724   -0.4125    0.0000 Cl  0  0  0  0  0  0  0  0  0  0  0  0
    2.1434   -0.4125    0.0000 C   0  0  0  0  0  0  0  0  0  0  0  0
    1.4289    0.0000    0.0000 C   0  0  0  0  0  0  0  0  0  0  0  0
    0.7145   -0.4125    0.0000 O   0  0  0  0  0  0  0  0  0  0  0  0
    0.7145   -1.2375    0.0000 C   0  0  2  0  0  0  0  0  0  0  0  0
    1.4289   -1.6500    0.0000 C   0  0  0  0  0  0  0  0  0  0  0  0
    2.1434   -1.2375    0.0000 C   0  0  0  0  0  0  0  0  0  0  0  0
    2.8579   -1.6500    0.0000 N   0  0  0  0  0  0  0  0  0  0  0  0
    0.0000   -1.6500    0.0000 C   0  0  0  0  0  0  0  0  0  0  0  0
    0.0000   -2.4750    0.0000 C   0  0  0  0  0  0  0  0  0  0  0  0
   -0.7145   -2.8875    0.0000 C   0  0  0  0  0  0  0  0  0  0  0  0
   -1.4289   -2.4750    0.0000 C   0  0  0  0  0  0  0  0  0  0  0  0
   -1.4289   -1.6500    0.0000 C   0  0  0  0  0  0  0  0  0  0  0  0
   -0.7145   -1.2375    0.0000 C   0  0  0  0  0  0  0  0  0  0  0  0
  1  2  3  0  0  0  0
  2  3  1  0  0  0  0
  3  4  2  0  0  0  0
  4  5  1  0  0  0  0
  5  6  2  0  0  0  0
  6  7  1  0  0  0  0
  6  8  1  0  0  0  0
  8  9  2  0  0  0  0
  3  9  1  0  0  0  0
  9 10  1  0  0  0  0
 11 10  1  6  0  0  0
 11 12  1  0  0  0  0
 12 13  1  0  0  0  0
 13 14  1  0  0  0  0
 11 15  1  0  0  0  0
 15 16  2  0  0  0  0
 16 17  1  0  0  0  0
 17 18  2  0  0  0  0
 18 19  1  0  0  0  0
 19 20  2  0  0  0  0
 15 20  1  0  0  0  0
M  END
>  <StandardizerResult>
Tautomerize


>  <CdId>
77

>  <Mol Weight>
286.76

>  <Formula>
C16H15ClN2O

>  <Molecule ChEMBL ID>
CHEMBL1738761

>  <Molecule Max Phase>
0

>  <Molecular Weight>
286.76

>  <#RO5 Violations>
0

>  <AlogP>
3.68

>  <Compound Key>
2529

>  <Standard Type>
pKa_B1

>  <Standard Value>
10.3

>  <Comment>
'B1 Functional Group: Primary amine; Ionisation Formula: A0B1 (Functional Group: the part of the molecule the pKa refers to; Ionisation formula: AxBy where 'A' refers to acidic centers within the molecule that are appreciably ionised at a pH <= 11 and 'x' equals 0, 1 or 2; and 'B' refers to basic centers within the molecule that are appreciably ionised at a pH >= 2 and 'y' equals 0, 1, 2 or 3).'

>  <Potential Duplicate>
false

>  <Assay ChEMBL ID>
CHEMBL3301362

>  <Assay Description>
ASTRAZENECA: Most basic pKa value (pKa B1) determined by absorption and potentiometric titration using standard methodology from Sirius Analytical. Experimental range Bases: >= 2.

>  <Assay Type>
P

>  <BAO Format ID>
BAO_0000100

>  <BAO Label>
small-molecule physicochemical format

>  <Target ChEMBL ID>
CHEMBL2362975

>  <Target Name>
No relevant target

>  <Target Type>
NO TARGET

>  <Document ChEMBL ID>
CHEMBL3301361

>  <Source ID>
27

>  <Source Description>
AstraZeneca Deposited Data

>  <Strongest basic pKa>
9.72

>  <deltapKa>
0.5821266741077054

>  <Strongest basic pKa_Taut>
9.72

>  <deltapKa_TAut>
0.5821266741077054

$$$$

  Mrv1920 03272013312D          

 18 19  0  0  0  0            999 V2000
    3.2789    2.0625    0.0000 N   0  0  0  0  0  0  0  0  0  0  0  0
    3.2789    1.2375    0.0000 C   0  0  0  0  0  0  0  0  0  0  0  0
    3.9934    0.8250    0.0000 N   0  0  0  0  0  0  0  0  0  0  0  0
    3.9934    0.0000    0.0000 C   0  0  0  0  0  0  0  0  0  0  0  0
    3.2789   -0.4125    0.0000 N   0  0  0  0  0  0  0  0  0  0  0  0
    2.5645    0.0000    0.0000 C   0  0  0  0  0  0  0  0  0  0  0  0
    2.5645    0.8250    0.0000 C   0  0  0  0  0  0  0  0  0  0  0  0
    1.7798    1.0799    0.0000 N   0  0  0  0  0  0  0  0  0  0  0  0
    1.2949    0.4125    0.0000 C   0  0  0  0  0  0  0  0  0  0  0  0
    1.7798   -0.2549    0.0000 N   0  0  0  0  0  0  0  0  0  0  0  0
    1.5249   -1.0396    0.0000 C   0  0  0  0  0  0  0  0  0  0  0  0
    0.7179   -1.2111    0.0000 C   0  0  0  0  0  0  0  0  0  0  0  0
    0.4630   -1.9957    0.0000 O   0  0  0  0  0  0  0  0  0  0  0  0
   -0.3440   -2.1672    0.0000 C   0  0  0  0  0  0  0  0  0  0  0  0
   -0.5989   -2.9519    0.0000 P   0  0  0  0  0  0  0  0  0  0  0  0
   -0.8539   -3.7365    0.0000 O   0  0  0  0  0  0  0  0  0  0  0  0
   -1.3835   -2.6969    0.0000 O   0  0  0  0  0  0  0  0  0  0  0  0
    0.1857   -3.2068    0.0000 O   0  0  0  0  0  0  0  0  0  0  0  0
  1  2  1  0  0  0  0
  2  3  1  0  0  0  0
  3  4  2  0  0  0  0
  4  5  1  0  0  0  0
  5  6  2  0  0  0  0
  6  7  1  0  0  0  0
  2  7  2  0  0  0  0
  7  8  1  0  0  0  0
  8  9  2  0  0  0  0
  9 10  1  0  0  0  0
  6 10  1  0  0  0  0
 10 11  1  0  0  0  0
 11 12  1  0  0  0  0
 12 13  1  0  0  0  0
 13 14  1  0  0  0  0
 14 15  1  0  0  0  0
 15 16  2  0  0  0  0
 15 17  1  0  0  0  0
 15 18  1  0  0  0  0
M  END
>  <StandardizerResult>
Tautomerize


>  <CdId>
176

>  <Mol Weight>
273.19

>  <Formula>
C8H12N5O4P

>  <Molecule ChEMBL ID>
CHEMBL484

>  <Molecule Name>
ADEFOVIR

>  <Molecule Max Phase>
3

>  <Molecular Weight>
273.19

>  <#RO5 Violations>
0

>  <AlogP>
-0.44

>  <Compound Key>
5790

>  <Standard Type>
pKa_B1

>  <Standard Value>
4.34

>  <Comment>
'B1 Functional Group: 9H-purin-6-amine; Ionisation Formula: A1B1 (Functional Group: the part of the molecule the pKa refers to; Ionisation formula: AxBy where 'A' refers to acidic centers within the molecule that are appreciably ionised at a pH <= 11 and 'x' equals 0, 1 or 2; and 'B' refers to basic centers within the molecule that are appreciably ionised at a pH >= 2 and 'y' equals 0, 1, 2 or 3).'

>  <Potential Duplicate>
false

>  <Assay ChEMBL ID>
CHEMBL3301362

>  <Assay Description>
ASTRAZENECA: Most basic pKa value (pKa B1) determined by absorption and potentiometric titration using standard methodology from Sirius Analytical. Experimental range Bases: >= 2.

>  <Assay Type>
P

>  <BAO Format ID>
BAO_0000100

>  <BAO Label>
small-molecule physicochemical format

>  <Target ChEMBL ID>
CHEMBL2362975

>  <Target Name>
No relevant target

>  <Target Type>
NO TARGET

>  <Document ChEMBL ID>
CHEMBL3301361

>  <Source ID>
27

>  <Source Description>
AstraZeneca Deposited Data

>  <Strongest basic pKa>
3.75

>  <deltapKa>
0.5880625934861201

>  <Strongest basic pKa_Taut>
3.75

>  <deltapKa_TAut>
0.5880625934861201

$$$$

  Mrv1920 03272013312D          

 24 25  0  0  1  0            999 V2000
    2.8579   -0.8250    0.0000 C   0  0  0  0  0  0  0  0  0  0  0  0
    2.8579   -1.6500    0.0000 N   0  0  0  0  0  0  0  0  0  0  0  0
    3.5724   -2.0625    0.0000 C   0  0  0  0  0  0  0  0  0  0  0  0
    4.2868   -1.6500    0.0000 C   0  0  0  0  0  0  0  0  0  0  0  0
    5.0013   -2.0625    0.0000 C   0  0  1  0  0  0  0  0  0  0  0  0
    5.7158   -1.6500    0.0000 O   0  0  0  0  0  0  0  0  0  0  0  0
    6.4302   -2.0625    0.0000 C   0  0  0  0  0  0  0  0  0  0  0  0
    6.4302   -2.8875    0.0000 C   0  0  0  0  0  0  0  0  0  0  0  0
    7.1447   -3.3000    0.0000 C   0  0  0  0  0  0  0  0  0  0  0  0
    7.1447   -4.1250    0.0000 C   0  0  0  0  0  0  0  0  0  0  0  0
    7.1447   -4.9500    0.0000 F   0  0  0  0  0  0  0  0  0  0  0  0
    6.3197   -4.1250    0.0000 F   0  0  0  0  0  0  0  0  0  0  0  0
    7.9697   -4.1250    0.0000 F   0  0  0  0  0  0  0  0  0  0  0  0
    7.8592   -2.8875    0.0000 C   0  0  0  0  0  0  0  0  0  0  0  0
    7.8592   -2.0625    0.0000 C   0  0  0  0  0  0  0  0  0  0  0  0
    7.1447   -1.6500    0.0000 C   0  0  0  0  0  0  0  0  0  0  0  0
    7.1447   -0.8250    0.0000 C   0  0  0  0  0  0  0  0  0  0  0  0
    7.1447    0.0000    0.0000 N   0  0  0  0  0  0  0  0  0  0  0  0
    5.0013   -2.8875    0.0000 C   0  0  0  0  0  0  0  0  0  0  0  0
    5.7158   -3.3000    0.0000 C   0  0  0  0  0  0  0  0  0  0  0  0
    5.7158   -4.1250    0.0000 C   0  0  0  0  0  0  0  0  0  0  0  0
    5.0013   -4.5375    0.0000 C   0  0  0  0  0  0  0  0  0  0  0  0
    4.2868   -4.1250    0.0000 C   0  0  0  0  0  0  0  0  0  0  0  0
    4.2868   -3.3000    0.0000 C   0  0  0  0  0  0  0  0  0  0  0  0
  1  2  1  0  0  0  0
  2  3  1  0  0  0  0
  3  4  1  0  0  0  0
  5  4  1  0  0  0  0
  5  6  1  1  0  0  0
  6  7  1  0  0  0  0
  7  8  2  0  0  0  0
  8  9  1  0  0  0  0
  9 10  1  0  0  0  0
 10 11  1  0  0  0  0
 10 12  1  0  0  0  0
 10 13  1  0  0  0  0
  9 14  2  0  0  0  0
 14 15  1  0  0  0  0
 15 16  2  0  0  0  0
  7 16  1  0  0  0  0
 16 17  1  0  0  0  0
 17 18  3  0  0  0  0
  5 19  1  0  0  0  0
 19 20  2  0  0  0  0
 20 21  1  0  0  0  0
 21 22  2  0  0  0  0
 22 23  1  0  0  0  0
 23 24  2  0  0  0  0
 19 24  1  0  0  0  0
M  END
>  <StandardizerResult>
Tautomerize


>  <CdId>
238

>  <Mol Weight>
334.34

>  <Formula>
C18H17F3N2O

>  <Molecule ChEMBL ID>
CHEMBL1789224

>  <Molecule Max Phase>
0

>  <Molecular Weight>
334.34

>  <#RO5 Violations>
0

>  <AlogP>
4.31

>  <Compound Key>
2526

>  <Standard Type>
pKa_B1

>  <Standard Value>
10.4

>  <Comment>
'B1 Functional Group: Secondary amine; Ionisation Formula: A0B1 (Functional Group: the part of the molecule the pKa refers to; Ionisation formula: AxBy where 'A' refers to acidic centers within the molecule that are appreciably ionised at a pH <= 11 and 'x' equals 0, 1 or 2; and 'B' refers to basic centers within the molecule that are appreciably ionised at a pH >= 2 and 'y' equals 0, 1, 2 or 3).'

>  <Potential Duplicate>
false

>  <Assay ChEMBL ID>
CHEMBL3301362

>  <Assay Description>
ASTRAZENECA: Most basic pKa value (pKa B1) determined by absorption and potentiometric titration using standard methodology from Sirius Analytical. Experimental range Bases: >= 2.

>  <Assay Type>
P

>  <BAO Format ID>
BAO_0000100

>  <BAO Label>
small-molecule physicochemical format

>  <Target ChEMBL ID>
CHEMBL2362975

>  <Target Name>
No relevant target

>  <Target Type>
NO TARGET

>  <Document ChEMBL ID>
CHEMBL3301361

>  <Source ID>
27

>  <Source Description>
AstraZeneca Deposited Data

>  <Strongest basic pKa>
9.8

>  <deltapKa>
0.5968614557812923

>  <Strongest basic pKa_Taut>
9.8

>  <deltapKa_TAut>
0.5968614557812923

$$$$

  Mrv1920 03272013312D          

 24 26  0  0  0  0            999 V2000
    4.2135    0.6979    0.0000 C   0  0  0  0  0  0  0  0  0  0  0  0
    3.4990    1.1104    0.0000 O   0  0  0  0  0  0  0  0  0  0  0  0
    2.7845    0.6979    0.0000 C   0  0  0  0  0  0  0  0  0  0  0  0
    2.7845   -0.1271    0.0000 O   0  0  0  0  0  0  0  0  0  0  0  0
    2.0701    1.1104    0.0000 C   0  0  0  0  0  0  0  0  0  0  0  0
    1.3556    0.6979    0.0000 C   0  0  0  0  0  0  0  0  0  0  0  0
    0.6411    1.1104    0.0000 C   0  0  0  0  0  0  0  0  0  0  0  0
   -0.1435    0.8555    0.0000 N   0  0  0  0  0  0  0  0  0  0  0  0
   -0.6284    1.5229    0.0000 C   0  0  0  0  0  0  0  0  0  0  0  0
   -1.4534    1.5229    0.0000 S   0  0  0  0  0  0  0  0  0  0  0  0
   -1.8659    2.2374    0.0000 O   0  0  0  0  0  0  0  0  0  0  0  0
   -1.8659    0.8085    0.0000 C   0  0  0  0  0  0  0  0  0  0  0  0
   -2.6909    0.8085    0.0000 C   0  0  0  0  0  0  0  0  0  0  0  0
   -3.1034    0.0940    0.0000 N   0  0  0  0  0  0  0  0  0  0  0  0
   -3.9284    0.0940    0.0000 C   0  0  0  0  0  0  0  0  0  0  0  0
   -4.3409    0.8085    0.0000 C   0  0  0  0  0  0  0  0  0  0  0  0
   -3.9284    1.5229    0.0000 C   0  0  0  0  0  0  0  0  0  0  0  0
   -3.1034    1.5229    0.0000 C   0  0  0  0  0  0  0  0  0  0  0  0
   -2.6909    2.2374    0.0000 C   0  0  0  0  0  0  0  0  0  0  0  0
   -0.1435    2.1904    0.0000 N   0  0  0  0  0  0  0  0  0  0  0  0
    0.6411    1.9354    0.0000 C   0  0  0  0  0  0  0  0  0  0  0  0
    1.3556    2.3479    0.0000 C   0  0  0  0  0  0  0  0  0  0  0  0
    2.0701    1.9354    0.0000 C   0  0  0  0  0  0  0  0  0  0  0  0
    2.7845    2.3479    0.0000 C   0  0  0  0  0  0  0  0  0  0  0  0
  1  2  1  0  0  0  0
  2  3  1  0  0  0  0
  3  4  2  0  0  0  0
  3  5  1  0  0  0  0
  5  6  1  0  0  0  0
  6  7  2  0  0  0  0
  7  8  1  0  0  0  0
  8  9  1  0  0  0  0
  9 10  1  0  0  0  0
 10 11  2  0  0  0  0
 10 12  1  0  0  0  0
 12 13  1  0  0  0  0
 13 14  2  0  0  0  0
 14 15  1  0  0  0  0
 15 16  2  0  0  0  0
 16 17  1  0  0  0  0
 17 18  2  0  0  0  0
 13 18  1  0  0  0  0
 18 19  1  0  0  0  0
  9 20  2  0  0  0  0
 20 21  1  0  0  0  0
  7 21  1  0  0  0  0
 21 22  2  0  0  0  0
 22 23  1  0  0  0  0
  5 23  2  0  0  0  0
 23 24  1  0  0  0  0
M  END
>  <StandardizerResult>
Tautomerize


>  <CdId>
256

>  <Mol Weight>
343.4

>  <Formula>
C17H17N3O3S

>  <Molecule ChEMBL ID>
CHEMBL2106940

>  <Molecule Name>
PICOPRAZOLE

>  <Molecule Max Phase>
0

>  <Molecular Weight>
343.41

>  <#RO5 Violations>
0

>  <AlogP>
2.67

>  <Compound Key>
1483

>  <Standard Type>
pKa_B1

>  <Standard Value>
3.5

>  <Comment>
'B1 Functional Group: Pyridine; Ionisation Formula: A1B1 (Functional Group: the part of the molecule the pKa refers to; Ionisation formula: AxBy where 'A' refers to acidic centers within the molecule that are appreciably ionised at a pH <= 11 and 'x' equals 0, 1 or 2; and 'B' refers to basic centers within the molecule that are appreciably ionised at a pH >= 2 and 'y' equals 0, 1, 2 or 3).'

>  <Potential Duplicate>
false

>  <Assay ChEMBL ID>
CHEMBL3301362

>  <Assay Description>
ASTRAZENECA: Most basic pKa value (pKa B1) determined by absorption and potentiometric titration using standard methodology from Sirius Analytical. Experimental range Bases: >= 2.

>  <Assay Type>
P

>  <BAO Format ID>
BAO_0000100

>  <BAO Label>
small-molecule physicochemical format

>  <Target ChEMBL ID>
CHEMBL2362975

>  <Target Name>
No relevant target

>  <Target Type>
NO TARGET

>  <Document ChEMBL ID>
CHEMBL3301361

>  <Source ID>
27

>  <Source Description>
AstraZeneca Deposited Data

>  <Strongest basic pKa>
2.88

>  <deltapKa>
0.6180236770437899

>  <Strongest basic pKa_Taut>
2.89

>  <deltapKa_TAut>
0.6105608220066565

$$$$

  Mrv1920 03272013312D          

 12 12  0  0  0  0            999 V2000
   -0.7145    3.7125    0.0000 C   0  0  0  0  0  0  0  0  0  0  0  0
    0.0000    3.3000    0.0000 N   0  0  0  0  0  0  0  0  0  0  0  0
    0.0000    2.4750    0.0000 C   0  0  0  0  0  0  0  0  0  0  0  0
    0.7145    2.0625    0.0000 C   0  0  0  0  0  0  0  0  0  0  0  0
    0.7145    1.2375    0.0000 C   0  0  0  0  0  0  0  0  0  0  0  0
    1.4289    0.8250    0.0000 C   0  0  0  0  0  0  0  0  0  0  0  0
    1.4289    0.0000    0.0000 C   0  0  0  0  0  0  0  0  0  0  0  0
    0.7145   -0.4125    0.0000 C   0  0  0  0  0  0  0  0  0  0  0  0
    0.7145   -1.2375    0.0000 O   0  0  0  0  0  0  0  0  0  0  0  0
    0.0000    0.0000    0.0000 C   0  0  0  0  0  0  0  0  0  0  0  0
   -0.7145   -0.4125    0.0000 O   0  0  0  0  0  0  0  0  0  0  0  0
    0.0000    0.8250    0.0000 C   0  0  0  0  0  0  0  0  0  0  0  0
  1  2  1  0  0  0  0
  2  3  1  0  0  0  0
  3  4  1  0  0  0  0
  4  5  1  0  0  0  0
  5  6  2  0  0  0  0
  6  7  1  0  0  0  0
  7  8  2  0  0  0  0
  8  9  1  0  0  0  0
  8 10  1  0  0  0  0
 10 11  1  0  0  0  0
 10 12  2  0  0  0  0
  5 12  1  0  0  0  0
M  END
>  <StandardizerResult>
Tautomerize


>  <CdId>
42

>  <Mol Weight>
167.21

>  <Formula>
C9H13NO2

>  <Molecule ChEMBL ID>
CHEMBL31088

>  <Molecule Name>
DEOXIEPINEPHRINE

>  <Molecule Max Phase>
0

>  <Molecular Weight>
167.21

>  <#RO5 Violations>
0

>  <AlogP>
0.86

>  <Compound Key>
1422

>  <Standard Type>
pKa_B1

>  <Standard Value>
10.9

>  <Comment>
'B1 Functional Group: Secondary amine; Ionisation Formula: A1B1 (Functional Group: the part of the molecule the pKa refers to; Ionisation formula: AxBy where 'A' refers to acidic centers within the molecule that are appreciably ionised at a pH <= 11 and 'x' equals 0, 1 or 2; and 'B' refers to basic centers within the molecule that are appreciably ionised at a pH >= 2 and 'y' equals 0, 1, 2 or 3).'

>  <Potential Duplicate>
false

>  <Assay ChEMBL ID>
CHEMBL3301362

>  <Assay Description>
ASTRAZENECA: Most basic pKa value (pKa B1) determined by absorption and potentiometric titration using standard methodology from Sirius Analytical. Experimental range Bases: >= 2.

>  <Assay Type>
P

>  <BAO Format ID>
BAO_0000100

>  <BAO Label>
small-molecule physicochemical format

>  <Target ChEMBL ID>
CHEMBL2362975

>  <Target Name>
No relevant target

>  <Target Type>
NO TARGET

>  <Document ChEMBL ID>
CHEMBL3301361

>  <Source ID>
27

>  <Source Description>
AstraZeneca Deposited Data

>  <Strongest basic pKa>
10.29

>  <deltapKa>
0.6129117136987539

>  <Strongest basic pKa_Taut>
10.29

>  <deltapKa_TAut>
0.6129117136987539

$$$$

  Mrv1920 03272013312D          

 21 23  0  0  0  0            999 V2000
   -0.1712   -0.6979    0.0000 C   0  0  0  0  0  0  0  0  0  0  0  0
    0.6538   -0.6979    0.0000 C   0  0  0  0  0  0  0  0  0  0  0  0
    1.1387   -0.0305    0.0000 N   0  0  0  0  0  0  0  0  0  0  0  0
    1.9233   -0.2854    0.0000 C   0  0  0  0  0  0  0  0  0  0  0  0
    2.6378    0.1271    0.0000 C   0  0  0  0  0  0  0  0  0  0  0  0
    2.6378    0.9521    0.0000 O   0  0  0  0  0  0  0  0  0  0  0  0
    3.3523    1.3646    0.0000 C   0  0  0  0  0  0  0  0  0  0  0  0
    3.3523    2.1896    0.0000 C   0  0  0  0  0  0  0  0  0  0  0  0
    2.6378    2.6021    0.0000 C   0  0  0  0  0  0  0  0  0  0  0  0
    2.6378    3.4271    0.0000 C   0  0  0  0  0  0  0  0  0  0  0  0
    3.3523    3.8396    0.0000 C   0  0  0  0  0  0  0  0  0  0  0  0
    4.0668    3.4271    0.0000 C   0  0  0  0  0  0  0  0  0  0  0  0
    4.0668    2.6021    0.0000 C   0  0  0  0  0  0  0  0  0  0  0  0
    3.3523   -0.2854    0.0000 C   0  0  0  0  0  0  0  0  0  0  0  0
    3.3523   -1.1104    0.0000 C   0  0  0  0  0  0  0  0  0  0  0  0
    2.6378   -1.5229    0.0000 C   0  0  0  0  0  0  0  0  0  0  0  0
    1.9233   -1.1104    0.0000 N   0  0  0  0  0  0  0  0  0  0  0  0
    1.1387   -1.3654    0.0000 C   0  0  0  0  0  0  0  0  0  0  0  0
    0.8838   -2.1500    0.0000 C   0  0  0  0  0  0  0  0  0  0  0  0
    1.4358   -2.7631    0.0000 C   0  0  0  0  0  0  0  0  0  0  0  0
    1.9878   -3.3762    0.0000 N   0  0  0  0  0  0  0  0  0  0  0  0
  1  2  1  0  0  0  0
  2  3  1  0  0  0  0
  3  4  2  0  0  0  0
  4  5  1  0  0  0  0
  5  6  1  0  0  0  0
  6  7  1  0  0  0  0
  7  8  1  0  0  0  0
  8  9  2  0  0  0  0
  9 10  1  0  0  0  0
 10 11  2  0  0  0  0
 11 12  1  0  0  0  0
 12 13  2  0  0  0  0
  8 13  1  0  0  0  0
  5 14  2  0  0  0  0
 14 15  1  0  0  0  0
 15 16  2  0  0  0  0
 16 17  1  0  0  0  0
  4 17  1  0  0  0  0
 17 18  1  0  0  0  0
  2 18  2  0  0  0  0
 18 19  1  0  0  0  0
 19 20  1  0  0  0  0
 20 21  3  0  0  0  0
M  END
>  <StandardizerResult>
Tautomerize


>  <CdId>
128

>  <Mol Weight>
277.33

>  <Formula>
C17H15N3O

>  <Molecule ChEMBL ID>
CHEMBL47529

>  <Molecule Max Phase>
0

>  <Molecular Weight>
277.33

>  <#RO5 Violations>
0

>  <AlogP>
3.29

>  <Compound Key>
331

>  <Standard Type>
pKa_B1

>  <Standard Value>
5.6

>  <Comment>
'B1 Functional Group: Imidazo[1,2-a]pyridine; Ionisation Formula: A0B1 (Functional Group: the part of the molecule the pKa refers to; Ionisation formula: AxBy where 'A' refers to acidic centers within the molecule that are appreciably ionised at a pH <= 11 and 'x' equals 0, 1 or 2; and 'B' refers to basic centers within the molecule that are appreciably ionised at a pH >= 2 and 'y' equals 0, 1, 2 or 3).'

>  <Potential Duplicate>
false

>  <Assay ChEMBL ID>
CHEMBL3301362

>  <Assay Description>
ASTRAZENECA: Most basic pKa value (pKa B1) determined by absorption and potentiometric titration using standard methodology from Sirius Analytical. Experimental range Bases: >= 2.

>  <Assay Type>
P

>  <BAO Format ID>
BAO_0000100

>  <BAO Label>
small-molecule physicochemical format

>  <Target ChEMBL ID>
CHEMBL2362975

>  <Target Name>
No relevant target

>  <Target Type>
NO TARGET

>  <Document ChEMBL ID>
CHEMBL3301361

>  <Source ID>
27

>  <Source Description>
AstraZeneca Deposited Data

>  <Strongest basic pKa>
4.96

>  <deltapKa>
0.6358257412819199

>  <Strongest basic pKa_Taut>
4.96

>  <deltapKa_TAut>
0.6358257412819199

$$$$

  Mrv1920 03272013312D          

 29 32  0  0  0  0            999 V2000
    4.2624   -3.2300    0.0000 C   0  0  0  0  0  0  0  0  0  0  0  0
    3.4554   -3.4015    0.0000 C   0  0  0  0  0  0  0  0  0  0  0  0
    3.2004   -4.1861    0.0000 C   0  0  0  0  0  0  0  0  0  0  0  0
    2.3935   -4.3576    0.0000 C   0  0  0  0  0  0  0  0  0  0  0  0
    1.8414   -3.7445    0.0000 C   0  0  0  0  0  0  0  0  0  0  0  0
    2.0964   -2.9599    0.0000 C   0  0  0  0  0  0  0  0  0  0  0  0
    2.9034   -2.7884    0.0000 C   0  0  0  0  0  0  0  0  0  0  0  0
    1.4289   -2.4750    0.0000 C   0  0  0  0  0  0  0  0  0  0  0  0
    1.4289   -1.6500    0.0000 C   0  0  0  0  0  0  0  0  0  0  0  0
    0.7145   -1.2375    0.0000 C   0  0  0  0  0  0  0  0  0  0  0  0
    0.7145   -0.4125    0.0000 C   0  0  0  0  0  0  0  0  0  0  0  0
    1.4289    0.0000    0.0000 N   0  0  0  0  0  0  0  0  0  0  0  0
    2.1434   -0.4125    0.0000 C   0  0  0  0  0  0  0  0  0  0  0  0
    2.8579    0.0000    0.0000 C   0  0  0  0  0  0  0  0  0  0  0  0
    2.8579    0.8250    0.0000 C   0  0  0  0  0  0  0  0  0  0  0  0
    2.8579    1.6500    0.0000 F   0  0  0  0  0  0  0  0  0  0  0  0
    2.0329    0.8250    0.0000 F   0  0  0  0  0  0  0  0  0  0  0  0
    3.6829    0.8250    0.0000 F   0  0  0  0  0  0  0  0  0  0  0  0
    3.5724   -0.4125    0.0000 C   0  0  0  0  0  0  0  0  0  0  0  0
    3.5724   -1.2375    0.0000 C   0  0  0  0  0  0  0  0  0  0  0  0
    2.8579   -1.6500    0.0000 C   0  0  0  0  0  0  0  0  0  0  0  0
    2.1434   -1.2375    0.0000 C   0  0  0  0  0  0  0  0  0  0  0  0
    0.7615   -2.9599    0.0000 C   0  0  0  0  0  0  0  0  0  0  0  0
   -0.0231   -2.7050    0.0000 C   0  0  0  0  0  0  0  0  0  0  0  0
    1.0164   -3.7445    0.0000 N   0  0  0  0  0  0  0  0  0  0  0  0
    0.5315   -4.4120    0.0000 C   0  0  0  0  0  0  0  0  0  0  0  0
   -0.2890   -4.3257    0.0000 C   0  0  0  0  0  0  0  0  0  0  0  0
   -0.7739   -4.9932    0.0000 O   0  0  0  0  0  0  0  0  0  0  0  0
   -0.6245   -3.5721    0.0000 O   0  0  0  0  0  0  0  0  0  0  0  0
  1  2  1  0  0  0  0
  2  3  2  0  0  0  0
  3  4  1  0  0  0  0
  4  5  2  0  0  0  0
  5  6  1  0  0  0  0
  6  7  2  0  0  0  0
  2  7  1  0  0  0  0
  6  8  1  0  0  0  0
  8  9  1  0  0  0  0
  9 10  2  0  0  0  0
 10 11  1  0  0  0  0
 11 12  2  0  0  0  0
 12 13  1  0  0  0  0
 13 14  2  0  0  0  0
 14 15  1  0  0  0  0
 15 16  1  0  0  0  0
 15 17  1  0  0  0  0
 15 18  1  0  0  0  0
 14 19  1  0  0  0  0
 19 20  2  0  0  0  0
 20 21  1  0  0  0  0
 21 22  2  0  0  0  0
  9 22  1  0  0  0  0
 13 22  1  0  0  0  0
  8 23  2  0  0  0  0
 23 24  1  0  0  0  0
 23 25  1  0  0  0  0
  5 25  1  0  0  0  0
 25 26  1  0  0  0  0
 26 27  1  0  0  0  0
 27 28  2  0  0  0  0
 27 29  1  0  0  0  0
M  END
>  <StandardizerResult>
Tautomerize


>  <CdId>
125

>  <Mol Weight>
398.38

>  <Formula>
C22H17F3N2O2

>  <Molecule ChEMBL ID>
CHEMBL214350

>  <Molecule Max Phase>
0

>  <Molecular Weight>
398.38

>  <#RO5 Violations>
1

>  <AlogP>
5.58

>  <Compound Key>
2347

>  <Standard Type>
pKa_B1

>  <Standard Value>
3.5

>  <Comment>
'B1 Functional Group: Quinoline; Ionisation Formula: A1B1 (Functional Group: the part of the molecule the pKa refers to; Ionisation formula: AxBy where 'A' refers to acidic centers within the molecule that are appreciably ionised at a pH <= 11 and 'x' equals 0, 1 or 2; and 'B' refers to basic centers within the molecule that are appreciably ionised at a pH >= 2 and 'y' equals 0, 1, 2 or 3).'

>  <Potential Duplicate>
false

>  <Assay ChEMBL ID>
CHEMBL3301362

>  <Assay Description>
ASTRAZENECA: Most basic pKa value (pKa B1) determined by absorption and potentiometric titration using standard methodology from Sirius Analytical. Experimental range Bases: >= 2.

>  <Assay Type>
P

>  <BAO Format ID>
BAO_0000100

>  <BAO Label>
small-molecule physicochemical format

>  <Target ChEMBL ID>
CHEMBL2362975

>  <Target Name>
No relevant target

>  <Target Type>
NO TARGET

>  <Document ChEMBL ID>
CHEMBL3301361

>  <Source ID>
27

>  <Source Description>
AstraZeneca Deposited Data

>  <Strongest basic pKa>
2.86

>  <deltapKa>
0.641806447845148

>  <Strongest basic pKa_Taut>
2.86

>  <deltapKa_TAut>
0.641806447845148

$$$$

  Mrv1920 03272013312D          

 33 36  0  0  0  0            999 V2000
   -0.1712    2.1599    0.0000 C   0  0  0  0  0  0  0  0  0  0  0  0
   -0.5837    1.4455    0.0000 C   0  0  0  0  0  0  0  0  0  0  0  0
   -0.1712    0.7310    0.0000 C   0  0  0  0  0  0  0  0  0  0  0  0
   -0.5837    0.0165    0.0000 C   0  0  0  0  0  0  0  0  0  0  0  0
   -0.1712   -0.6979    0.0000 C   0  0  0  0  0  0  0  0  0  0  0  0
    0.6538   -0.6979    0.0000 N   0  0  0  0  0  0  0  0  0  0  0  0
    1.1387   -0.0305    0.0000 C   0  0  0  0  0  0  0  0  0  0  0  0
    1.9233   -0.2854    0.0000 C   0  0  0  0  0  0  0  0  0  0  0  0
    2.6378    0.1271    0.0000 C   0  0  0  0  0  0  0  0  0  0  0  0
    3.3523   -0.2854    0.0000 C   0  0  0  0  0  0  0  0  0  0  0  0
    3.3523   -1.1104    0.0000 C   0  0  0  0  0  0  0  0  0  0  0  0
    2.6378   -1.5229    0.0000 C   0  0  0  0  0  0  0  0  0  0  0  0
    1.9233   -1.1104    0.0000 C   0  0  0  0  0  0  0  0  0  0  0  0
    1.1387   -1.3654    0.0000 C   0  0  0  0  0  0  0  0  0  0  0  0
    0.8838   -2.1500    0.0000 C   0  0  0  0  0  0  0  0  0  0  0  0
    0.0768   -2.3215    0.0000 O   0  0  0  0  0  0  0  0  0  0  0  0
    1.4358   -2.7631    0.0000 N   0  0  0  0  0  0  0  0  0  0  0  0
    1.1809   -3.5477    0.0000 C   0  0  0  0  0  0  0  0  0  0  0  0
    0.3739   -3.7192    0.0000 C   0  0  0  0  0  0  0  0  0  0  0  0
    0.1190   -4.5039    0.0000 C   0  0  0  0  0  0  0  0  0  0  0  0
    0.6710   -5.1170    0.0000 C   0  0  0  0  0  0  0  0  0  0  0  0
    0.4161   -5.9016    0.0000 Cl  0  0  0  0  0  0  0  0  0  0  0  0
    1.4780   -4.9454    0.0000 C   0  0  0  0  0  0  0  0  0  0  0  0
    1.7329   -4.1608    0.0000 C   0  0  0  0  0  0  0  0  0  0  0  0
    2.5399   -3.9893    0.0000 Cl  0  0  0  0  0  0  0  0  0  0  0  0
   -1.4087    0.0165    0.0000 C   0  0  0  0  0  0  0  0  0  0  0  0
   -1.8212    0.7310    0.0000 C   0  0  0  0  0  0  0  0  0  0  0  0
   -1.4087    1.4455    0.0000 C   0  0  0  0  0  0  0  0  0  0  0  0
   -1.8212    2.1599    0.0000 O   0  0  0  0  0  0  0  0  0  0  0  0
   -2.6462    2.1599    0.0000 C   0  0  0  0  0  0  0  0  0  0  0  0
   -3.0587    2.8744    0.0000 C   0  0  0  0  0  0  0  0  0  0  0  0
   -2.6462    3.5889    0.0000 O   0  0  0  0  0  0  0  0  0  0  0  0
   -3.8837    2.8744    0.0000 O   0  0  0  0  0  0  0  0  0  0  0  0
  1  2  1  0  0  0  0
  2  3  2  0  0  0  0
  3  4  1  0  0  0  0
  4  5  1  0  0  0  0
  5  6  1  0  0  0  0
  6  7  1  0  0  0  0
  7  8  1  0  0  0  0
  8  9  2  0  0  0  0
  9 10  1  0  0  0  0
 10 11  2  0  0  0  0
 11 12  1  0  0  0  0
 12 13  2  0  0  0  0
  8 13  1  0  0  0  0
 13 14  1  0  0  0  0
  6 14  1  0  0  0  0
 14 15  1  0  0  0  0
 15 16  2  0  0  0  0
 15 17  1  0  0  0  0
 17 18  1  0  0  0  0
 18 19  2  0  0  0  0
 19 20  1  0  0  0  0
 20 21  2  0  0  0  0
 21 22  1  0  0  0  0
 21 23  1  0  0  0  0
 23 24  2  0  0  0  0
 18 24  1  0  0  0  0
 24 25  1  0  0  0  0
  4 26  2  0  0  0  0
 26 27  1  0  0  0  0
 27 28  2  0  0  0  0
  2 28  1  0  0  0  0
 28 29  1  0  0  0  0
 29 30  1  0  0  0  0
 30 31  1  0  0  0  0
 31 32  2  0  0  0  0
 31 33  1  0  0  0  0
M  END
>  <StandardizerResult>
Tautomerize


>  <CdId>
219

>  <Mol Weight>
485.36

>  <Formula>
C25H22Cl2N2O4

>  <Molecule ChEMBL ID>
CHEMBL1643194

>  <Molecule Max Phase>
0

>  <Molecular Weight>
485.37

>  <#RO5 Violations>
1

>  <AlogP>
5.46

>  <Compound Key>
5295

>  <Standard Type>
pKa_B1

>  <Standard Value>
5.6

>  <Comment>
'B1 Functional Group: 1H-isoindole, 2,3-dihydro-; Ionisation Formula: A1B1 (Functional Group: the part of the molecule the pKa refers to; Ionisation formula: AxBy where 'A' refers to acidic centers within the molecule that are appreciably ionised at a pH <= 11 and 'x' equals 0, 1 or 2; and 'B' refers to basic centers within the molecule that are appreciably ionised at a pH >= 2 and 'y' equals 0, 1, 2 or 3).'

>  <Potential Duplicate>
false

>  <Assay ChEMBL ID>
CHEMBL3301362

>  <Assay Description>
ASTRAZENECA: Most basic pKa value (pKa B1) determined by absorption and potentiometric titration using standard methodology from Sirius Analytical. Experimental range Bases: >= 2.

>  <Assay Type>
P

>  <BAO Format ID>
BAO_0000100

>  <BAO Label>
small-molecule physicochemical format

>  <Target ChEMBL ID>
CHEMBL2362975

>  <Target Name>
No relevant target

>  <Target Type>
NO TARGET

>  <Document ChEMBL ID>
CHEMBL3301361

>  <Source ID>
27

>  <Source Description>
AstraZeneca Deposited Data

>  <Strongest basic pKa>
4.93

>  <deltapKa>
0.6679928256649168

>  <Strongest basic pKa_Taut>
4.93

>  <deltapKa_TAut>
0.6679928256649168

$$$$

  Mrv1920 03272013312D          

 26 29  0  0  0  0            999 V2000
    3.0892    4.8695    0.0000 C   0  0  0  0  0  0  0  0  0  0  0  0
    3.0892    4.0445    0.0000 N   0  0  0  0  0  0  0  0  0  0  0  0
    3.8037    3.6320    0.0000 C   0  0  0  0  0  0  0  0  0  0  0  0
    3.8037    2.8070    0.0000 C   0  0  0  0  0  0  0  0  0  0  0  0
    3.0892    2.3945    0.0000 N   0  0  0  0  0  0  0  0  0  0  0  0
    3.0892    1.5695    0.0000 C   0  0  0  0  0  0  0  0  0  0  0  0
    3.8037    1.1570    0.0000 C   0  0  0  0  0  0  0  0  0  0  0  0
    4.5181    1.5695    0.0000 O   0  0  0  0  0  0  0  0  0  0  0  0
    3.8037    0.3320    0.0000 N   0  0  0  0  0  0  0  0  0  0  0  0
    4.5470   -0.0260    0.0000 C   0  0  0  0  0  0  0  0  0  0  0  0
    5.1517    0.5352    0.0000 C   0  0  0  0  0  0  0  0  0  0  0  0
    5.9401    0.2920    0.0000 C   0  0  0  0  0  0  0  0  0  0  0  0
    6.1237   -0.5123    0.0000 C   0  0  0  0  0  0  0  0  0  0  0  0
    5.5189   -1.0735    0.0000 C   0  0  0  0  0  0  0  0  0  0  0  0
    4.7305   -0.8303    0.0000 C   0  0  0  0  0  0  0  0  0  0  0  0
    4.2162   -1.4753    0.0000 C   0  0  0  0  0  0  0  0  0  0  0  0
    4.5741   -2.2186    0.0000 O   0  0  0  0  0  0  0  0  0  0  0  0
    3.3912   -1.4753    0.0000 N   0  0  0  0  0  0  0  0  0  0  0  0
    2.8768   -0.8303    0.0000 C   0  0  0  0  0  0  0  0  0  0  0  0
    2.0884   -1.0735    0.0000 C   0  0  0  0  0  0  0  0  0  0  0  0
    1.4837   -0.5123    0.0000 C   0  0  0  0  0  0  0  0  0  0  0  0
    1.6673    0.2920    0.0000 C   0  0  0  0  0  0  0  0  0  0  0  0
    2.4556    0.5352    0.0000 N   0  0  0  0  0  0  0  0  0  0  0  0
    3.0604   -0.0260    0.0000 C   0  0  0  0  0  0  0  0  0  0  0  0
    2.3747    2.8070    0.0000 C   0  0  0  0  0  0  0  0  0  0  0  0
    2.3747    3.6320    0.0000 C   0  0  0  0  0  0  0  0  0  0  0  0
  1  2  1  0  0  0  0
  2  3  1  0  0  0  0
  3  4  1  0  0  0  0
  4  5  1  0  0  0  0
  5  6  1  0  0  0  0
  6  7  1  0  0  0  0
  7  8  2  0  0  0  0
  7  9  1  0  0  0  0
  9 10  1  0  0  0  0
 10 11  2  0  0  0  0
 11 12  1  0  0  0  0
 12 13  2  0  0  0  0
 13 14  1  0  0  0  0
 14 15  2  0  0  0  0
 10 15  1  0  0  0  0
 15 16  1  0  0  0  0
 16 17  2  0  0  0  0
 16 18  1  0  0  0  0
 18 19  1  0  0  0  0
 19 20  2  0  0  0  0
 20 21  1  0  0  0  0
 21 22  2  0  0  0  0
 22 23  1  0  0  0  0
 23 24  2  0  0  0  0
 19 24  1  0  0  0  0
  9 24  1  0  0  0  0
  5 25  1  0  0  0  0
 25 26  1  0  0  0  0
  2 26  1  0  0  0  0
M  END
>  <StandardizerResult>
Tautomerize


>  <CdId>
169

>  <Mol Weight>
351.41

>  <Formula>
C19H21N5O2

>  <Molecule ChEMBL ID>
CHEMBL9967

>  <Molecule Name>
PIRENZEPINE

>  <Molecule Max Phase>
4

>  <Molecular Weight>
351.41

>  <#RO5 Violations>
0

>  <AlogP>
1.56

>  <Compound Key>
174

>  <Standard Type>
pKa_B1

>  <Standard Value>
7.88

>  <Comment>
'B1 Functional Group: Piperazine; Ionisation Formula: A1B1 (Functional Group: the part of the molecule the pKa refers to; Ionisation formula: AxBy where 'A' refers to acidic centers within the molecule that are appreciably ionised at a pH <= 11 and 'x' equals 0, 1 or 2; and 'B' refers to basic centers within the molecule that are appreciably ionised at a pH >= 2 and 'y' equals 0, 1, 2 or 3).'

>  <Potential Duplicate>
false

>  <Assay ChEMBL ID>
CHEMBL3301362

>  <Assay Description>
ASTRAZENECA: Most basic pKa value (pKa B1) determined by absorption and potentiometric titration using standard methodology from Sirius Analytical. Experimental range Bases: >= 2.

>  <Assay Type>
P

>  <BAO Format ID>
BAO_0000100

>  <BAO Label>
small-molecule physicochemical format

>  <Target ChEMBL ID>
CHEMBL2362975

>  <Target Name>
No relevant target

>  <Target Type>
NO TARGET

>  <Document ChEMBL ID>
CHEMBL3301361

>  <Source ID>
27

>  <Source Description>
AstraZeneca Deposited Data

>  <Strongest basic pKa>
7.2

>  <deltapKa>
0.6827463818412367

>  <Strongest basic pKa_Taut>
7.2

>  <deltapKa_TAut>
0.6827463818412367

$$$$

  Mrv1920 03272013312D          

 26 28  0  0  0  0            999 V2000
    0.7145   -2.8875    0.0000 O   0  0  0  0  0  0  0  0  0  0  0  0
    0.7145   -2.0625    0.0000 C   0  0  0  0  0  0  0  0  0  0  0  0
    1.4289   -1.6500    0.0000 C   0  0  0  0  0  0  0  0  0  0  0  0
    2.1434   -2.0625    0.0000 C   0  0  0  0  0  0  0  0  0  0  0  0
    2.8579   -1.6500    0.0000 C   0  0  0  0  0  0  0  0  0  0  0  0
    3.5724   -2.0625    0.0000 N   0  0  0  0  0  0  0  0  0  0  0  0
    4.2868   -1.6500    0.0000 C   0  0  0  0  0  0  0  0  0  0  0  0
    5.0013   -2.0625    0.0000 C   0  0  0  0  0  0  0  0  0  0  0  0
    5.0013   -2.8875    0.0000 C   0  0  0  0  0  0  0  0  0  0  0  0
    5.8138   -2.7442    0.0000 O   0  0  0  0  0  0  0  0  0  0  0  0
    5.2835   -3.6627    0.0000 C   0  0  0  0  0  0  0  0  0  0  0  0
    6.0959   -3.8060    0.0000 C   0  0  0  0  0  0  0  0  0  0  0  0
    6.3781   -4.5813    0.0000 C   0  0  0  0  0  0  0  0  0  0  0  0
    5.8478   -5.2132    0.0000 C   0  0  0  0  0  0  0  0  0  0  0  0
    6.1300   -5.9885    0.0000 Cl  0  0  0  0  0  0  0  0  0  0  0  0
    5.0353   -5.0700    0.0000 C   0  0  0  0  0  0  0  0  0  0  0  0
    4.7532   -4.2947    0.0000 C   0  0  0  0  0  0  0  0  0  0  0  0
    4.2868   -3.3000    0.0000 C   0  0  0  0  0  0  0  0  0  0  0  0
    3.5724   -2.8875    0.0000 C   0  0  0  0  0  0  0  0  0  0  0  0
    0.0000   -1.6500    0.0000 C   0  0  0  0  0  0  0  0  0  0  0  0
   -0.7145   -2.0625    0.0000 C   0  0  0  0  0  0  0  0  0  0  0  0
   -1.4289   -1.6500    0.0000 C   0  0  0  0  0  0  0  0  0  0  0  0
   -1.4289   -0.8250    0.0000 C   0  0  0  0  0  0  0  0  0  0  0  0
   -2.1434   -0.4125    0.0000 F   0  0  0  0  0  0  0  0  0  0  0  0
   -0.7145   -0.4125    0.0000 C   0  0  0  0  0  0  0  0  0  0  0  0
    0.0000   -0.8250    0.0000 C   0  0  0  0  0  0  0  0  0  0  0  0
  1  2  2  0  0  0  0
  2  3  1  0  0  0  0
  3  4  1  0  0  0  0
  4  5  1  0  0  0  0
  5  6  1  0  0  0  0
  6  7  1  0  0  0  0
  7  8  1  0  0  0  0
  8  9  1  0  0  0  0
  9 10  1  0  0  0  0
  9 11  1  0  0  0  0
 11 12  2  0  0  0  0
 12 13  1  0  0  0  0
 13 14  2  0  0  0  0
 14 15  1  0  0  0  0
 14 16  1  0  0  0  0
 16 17  2  0  0  0  0
 11 17  1  0  0  0  0
  9 18  1  0  0  0  0
 18 19  1  0  0  0  0
  6 19  1  0  0  0  0
  2 20  1  0  0  0  0
 20 21  2  0  0  0  0
 21 22  1  0  0  0  0
 22 23  2  0  0  0  0
 23 24  1  0  0  0  0
 23 25  1  0  0  0  0
 25 26  2  0  0  0  0
 20 26  1  0  0  0  0
M  END
>  <StandardizerResult>
Tautomerize


>  <CdId>
173

>  <Mol Weight>
375.87

>  <Formula>
C21H23ClFNO2

>  <Molecule ChEMBL ID>
CHEMBL54

>  <Molecule Name>
HALOPERIDOL

>  <Molecule Max Phase>
4

>  <Molecular Weight>
375.87

>  <#RO5 Violations>
0

>  <AlogP>
4.43

>  <Compound Key>
298

>  <Standard Type>
pKa_B1

>  <Standard Value>
8.75

>  <Comment>
'B1 Functional Group: Piperidine; Ionisation Formula: A0B1 (Functional Group: the part of the molecule the pKa refers to; Ionisation formula: AxBy where 'A' refers to acidic centers within the molecule that are appreciably ionised at a pH <= 11 and 'x' equals 0, 1 or 2; and 'B' refers to basic centers within the molecule that are appreciably ionised at a pH >= 2 and 'y' equals 0, 1, 2 or 3).'

>  <Potential Duplicate>
false

>  <Assay ChEMBL ID>
CHEMBL3301362

>  <Assay Description>
ASTRAZENECA: Most basic pKa value (pKa B1) determined by absorption and potentiometric titration using standard methodology from Sirius Analytical. Experimental range Bases: >= 2.

>  <Assay Type>
P

>  <BAO Format ID>
BAO_0000100

>  <BAO Label>
small-molecule physicochemical format

>  <Target ChEMBL ID>
CHEMBL2362975

>  <Target Name>
No relevant target

>  <Target Type>
NO TARGET

>  <Document ChEMBL ID>
CHEMBL3301361

>  <Source ID>
27

>  <Source Description>
AstraZeneca Deposited Data

>  <Strongest basic pKa>
8.05

>  <deltapKa>
0.7047122202803671

>  <Strongest basic pKa_Taut>
8.05

>  <deltapKa_TAut>
0.7047122202803671

$$$$

  Mrv1920 03272013312D          

 18 20  0  0  0  0            999 V2000
   -0.5837    0.0165    0.0000 O   0  0  0  0  0  0  0  0  0  0  0  0
   -0.1712   -0.6979    0.0000 S   0  0  0  0  0  0  0  0  0  0  0  0
   -0.5837   -1.4124    0.0000 C   0  0  0  0  0  0  0  0  0  0  0  0
   -1.4087   -1.4124    0.0000 C   0  0  0  0  0  0  0  0  0  0  0  0
   -1.8212   -2.1269    0.0000 C   0  0  0  0  0  0  0  0  0  0  0  0
   -2.6462   -2.1269    0.0000 C   0  0  0  0  0  0  0  0  0  0  0  0
   -3.0587   -1.4124    0.0000 C   0  0  0  0  0  0  0  0  0  0  0  0
   -2.6462   -0.6979    0.0000 C   0  0  0  0  0  0  0  0  0  0  0  0
   -1.8212   -0.6979    0.0000 N   0  0  0  0  0  0  0  0  0  0  0  0
    0.6538   -0.6979    0.0000 C   0  0  0  0  0  0  0  0  0  0  0  0
    1.1387   -0.0305    0.0000 N   0  0  0  0  0  0  0  0  0  0  0  0
    1.9233   -0.2854    0.0000 C   0  0  0  0  0  0  0  0  0  0  0  0
    2.6378    0.1271    0.0000 C   0  0  0  0  0  0  0  0  0  0  0  0
    3.3523   -0.2854    0.0000 C   0  0  0  0  0  0  0  0  0  0  0  0
    3.3523   -1.1104    0.0000 C   0  0  0  0  0  0  0  0  0  0  0  0
    2.6378   -1.5229    0.0000 C   0  0  0  0  0  0  0  0  0  0  0  0
    1.9233   -1.1104    0.0000 C   0  0  0  0  0  0  0  0  0  0  0  0
    1.1387   -1.3654    0.0000 N   0  0  0  0  0  0  0  0  0  0  0  0
  1  2  2  0  0  0  0
  2  3  1  0  0  0  0
  3  4  1  0  0  0  0
  4  5  2  0  0  0  0
  5  6  1  0  0  0  0
  6  7  2  0  0  0  0
  7  8  1  0  0  0  0
  8  9  2  0  0  0  0
  4  9  1  0  0  0  0
  2 10  1  0  0  0  0
 10 11  2  0  0  0  0
 11 12  1  0  0  0  0
 12 13  2  0  0  0  0
 13 14  1  0  0  0  0
 14 15  2  0  0  0  0
 15 16  1  0  0  0  0
 16 17  2  0  0  0  0
 12 17  1  0  0  0  0
 17 18  1  0  0  0  0
 10 18  1  0  0  0  0
M  END
>  <StandardizerResult>
Tautomerize


>  <CdId>
209

>  <Mol Weight>
257.31

>  <Formula>
C13H11N3OS

>  <Molecule ChEMBL ID>
CHEMBL9861

>  <Molecule Name>
TIMOPRAZOLE

>  <Molecule Max Phase>
0

>  <Molecular Weight>
257.32

>  <#RO5 Violations>
0

>  <AlogP>
2.27

>  <Compound Key>
568

>  <Standard Type>
pKa_B1

>  <Standard Value>
3.1

>  <Comment>
'B1 Functional Group: Pyridine; Ionisation Formula: A1B1 (Functional Group: the part of the molecule the pKa refers to; Ionisation formula: AxBy where 'A' refers to acidic centers within the molecule that are appreciably ionised at a pH <= 11 and 'x' equals 0, 1 or 2; and 'B' refers to basic centers within the molecule that are appreciably ionised at a pH >= 2 and 'y' equals 0, 1, 2 or 3).'

>  <Potential Duplicate>
false

>  <Assay ChEMBL ID>
CHEMBL3301362

>  <Assay Description>
ASTRAZENECA: Most basic pKa value (pKa B1) determined by absorption and potentiometric titration using standard methodology from Sirius Analytical. Experimental range Bases: >= 2.

>  <Assay Type>
P

>  <BAO Format ID>
BAO_0000100

>  <BAO Label>
small-molecule physicochemical format

>  <Target ChEMBL ID>
CHEMBL2362975

>  <Target Name>
No relevant target

>  <Target Type>
NO TARGET

>  <Document ChEMBL ID>
CHEMBL3301361

>  <Source ID>
27

>  <Source Description>
AstraZeneca Deposited Data

>  <Strongest basic pKa>
2.38

>  <deltapKa>
0.7203400419949433

>  <Strongest basic pKa_Taut>
2.38

>  <deltapKa_TAut>
0.7203400419949433

$$$$

  Mrv1920 03272013312D          

 20 21  0  0  0  0            999 V2000
   -2.1552    1.3045    0.0000 C   0  0  0  0  0  0  0  0  0  0  0  0
   -1.4408    0.8920    0.0000 O   0  0  0  0  0  0  0  0  0  0  0  0
   -1.4408    0.0670    0.0000 C   0  0  0  0  0  0  0  0  0  0  0  0
   -0.7263   -0.3455    0.0000 C   0  0  0  0  0  0  0  0  0  0  0  0
   -0.7263   -1.1705    0.0000 C   0  0  0  0  0  0  0  0  0  0  0  0
   -1.4408   -1.5830    0.0000 C   0  0  0  0  0  0  0  0  0  0  0  0
   -1.4408   -2.4080    0.0000 C   0  0  0  0  0  0  0  0  0  0  0  0
   -2.1552   -2.8205    0.0000 C   0  0  0  0  0  0  0  0  0  0  0  0
   -2.1552   -3.6455    0.0000 N   0  0  0  0  0  0  0  0  0  0  0  0
   -1.4408   -4.0580    0.0000 C   0  0  0  0  0  0  0  0  0  0  0  0
   -2.8697   -4.0580    0.0000 C   0  0  0  0  0  0  0  0  0  0  0  0
   -0.7263   -2.8205    0.0000 C   0  0  0  0  0  0  0  0  0  0  0  0
   -1.2566   -3.4525    0.0000 O   0  0  0  0  0  0  0  0  0  0  0  0
   -0.4441   -2.0452    0.0000 C   0  0  0  0  0  0  0  0  0  0  0  0
    0.3683   -1.9020    0.0000 C   0  0  0  0  0  0  0  0  0  0  0  0
    0.8986   -2.5339    0.0000 C   0  0  0  0  0  0  0  0  0  0  0  0
    0.6165   -3.3092    0.0000 C   0  0  0  0  0  0  0  0  0  0  0  0
   -0.1960   -3.4525    0.0000 C   0  0  0  0  0  0  0  0  0  0  0  0
   -2.1552   -1.1705    0.0000 C   0  0  0  0  0  0  0  0  0  0  0  0
   -2.1552   -0.3455    0.0000 C   0  0  0  0  0  0  0  0  0  0  0  0
  1  2  1  0  0  0  0
  2  3  1  0  0  0  0
  3  4  2  0  0  0  0
  4  5  1  0  0  0  0
  5  6  2  0  0  0  0
  6  7  1  0  0  0  0
  7  8  1  0  0  0  0
  8  9  1  0  0  0  0
  9 10  1  0  0  0  0
  9 11  1  0  0  0  0
  7 12  1  0  0  0  0
 12 13  1  0  0  0  0
 12 14  1  0  0  0  0
 14 15  1  0  0  0  0
 15 16  1  0  0  0  0
 16 17  1  0  0  0  0
 17 18  1  0  0  0  0
 12 18  1  0  0  0  0
  6 19  1  0  0  0  0
 19 20  2  0  0  0  0
  3 20  1  0  0  0  0
M  END
>  <StandardizerResult>
Tautomerize


>  <CdId>
199

>  <Mol Weight>
277.41

>  <Formula>
C17H27NO2

>  <Molecule ChEMBL ID>
CHEMBL637

>  <Molecule Name>
VENLAFAXINE

>  <Molecule Max Phase>
4

>  <Molecular Weight>
277.41

>  <#RO5 Violations>
0

>  <AlogP>
3.04

>  <Compound Key>
1883

>  <Standard Type>
pKa_B1

>  <Standard Value>
9.64

>  <Comment>
'B1 Functional Group: Tertiary amine; Ionisation Formula: A0B1 (Functional Group: the part of the molecule the pKa refers to; Ionisation formula: AxBy where 'A' refers to acidic centers within the molecule that are appreciably ionised at a pH <= 11 and 'x' equals 0, 1 or 2; and 'B' refers to basic centers within the molecule that are appreciably ionised at a pH >= 2 and 'y' equals 0, 1, 2 or 3).'

>  <Potential Duplicate>
false

>  <Assay ChEMBL ID>
CHEMBL3301362

>  <Assay Description>
ASTRAZENECA: Most basic pKa value (pKa B1) determined by absorption and potentiometric titration using standard methodology from Sirius Analytical. Experimental range Bases: >= 2.

>  <Assay Type>
P

>  <BAO Format ID>
BAO_0000100

>  <BAO Label>
small-molecule physicochemical format

>  <Target ChEMBL ID>
CHEMBL2362975

>  <Target Name>
No relevant target

>  <Target Type>
NO TARGET

>  <Document ChEMBL ID>
CHEMBL3301361

>  <Source ID>
27

>  <Source Description>
AstraZeneca Deposited Data

>  <Strongest basic pKa>
8.91

>  <deltapKa>
0.7320434616044249

>  <Strongest basic pKa_Taut>
8.91

>  <deltapKa_TAut>
0.7320434616044249

$$$$

  Mrv1920 03272013312D          

 31 34  0  0  1  0            999 V2000
   -0.7145   -0.4125    0.0000 C   0  0  0  0  0  0  0  0  0  0  0  0
    0.0000    0.0000    0.0000 C   0  0  0  0  0  0  0  0  0  0  0  0
    0.0000    0.8250    0.0000 C   0  0  0  0  0  0  0  0  0  0  0  0
    0.7145   -0.4125    0.0000 C   0  0  0  0  0  0  0  0  0  0  0  0
    1.4289    0.0000    0.0000 N   0  0  0  0  0  0  0  0  0  0  0  0
    2.1434   -0.4125    0.0000 C   0  0  0  0  0  0  0  0  0  0  0  0
    2.8579    0.0000    0.0000 C   0  0  0  0  0  0  0  0  0  0  0  0
    3.5724   -0.4125    0.0000 C   0  0  0  0  0  0  0  0  0  0  0  0
    3.5724   -1.2375    0.0000 C   0  0  0  0  0  0  0  0  0  0  0  0
    4.2868   -1.6500    0.0000 C   0  0  0  0  0  0  0  0  0  0  0  0
    5.0013   -1.2375    0.0000 C   0  0  0  0  0  0  0  0  0  0  0  0
    5.7158   -1.6500    0.0000 C   0  0  0  0  0  0  0  0  0  0  0  0
    5.7158   -2.4750    0.0000 C   0  0  0  0  0  0  0  0  0  0  0  0
    6.4302   -2.8875    0.0000 F   0  0  0  0  0  0  0  0  0  0  0  0
    5.0013   -2.8875    0.0000 C   0  0  0  0  0  0  0  0  0  0  0  0
    4.2868   -2.4750    0.0000 C   0  0  0  0  0  0  0  0  0  0  0  0
    2.8579   -1.6500    0.0000 C   0  0  0  0  0  0  0  0  0  0  0  0
    2.1434   -1.2375    0.0000 C   0  0  0  0  0  0  0  0  0  0  0  0
    1.4289   -1.6500    0.0000 C   0  0  0  0  0  0  0  0  0  0  0  0
    1.4289   -2.4750    0.0000 O   0  0  0  0  0  0  0  0  0  0  0  0
    0.7145   -1.2375    0.0000 N   0  0  0  0  0  0  0  0  0  0  0  0
    0.0000   -1.6500    0.0000 C   0  0  0  0  0  0  0  0  0  0  0  0
    0.0000   -2.4750    0.0000 C   0  0  1  0  0  0  0  0  0  0  0  0
    0.7145   -2.8875    0.0000 C   0  0  0  0  0  0  0  0  0  0  0  0
    0.7145   -3.7125    0.0000 C   0  0  0  0  0  0  0  0  0  0  0  0
    0.0000   -4.1250    0.0000 C   0  0  0  0  0  0  0  0  0  0  0  0
   -0.7145   -3.7125    0.0000 N   0  0  0  0  0  0  0  0  0  0  0  0
   -1.4289   -4.1250    0.0000 C   0  0  0  0  0  0  0  0  0  0  0  0
   -1.4289   -4.9500    0.0000 C   0  0  0  0  0  0  0  0  0  0  0  0
   -2.1434   -3.7125    0.0000 C   0  0  0  0  0  0  0  0  0  0  0  0
   -0.7145   -2.8875    0.0000 C   0  0  0  0  0  0  0  0  0  0  0  0
  1  2  1  0  0  0  0
  2  3  1  0  0  0  0
  2  4  1  0  0  0  0
  4  5  2  0  0  0  0
  5  6  1  0  0  0  0
  6  7  2  0  0  0  0
  7  8  1  0  0  0  0
  8  9  2  0  0  0  0
  9 10  1  0  0  0  0
 10 11  2  0  0  0  0
 11 12  1  0  0  0  0
 12 13  2  0  0  0  0
 13 14  1  0  0  0  0
 13 15  1  0  0  0  0
 15 16  2  0  0  0  0
 10 16  1  0  0  0  0
  9 17  1  0  0  0  0
 17 18  2  0  0  0  0
  6 18  1  0  0  0  0
 18 19  1  0  0  0  0
 19 20  2  0  0  0  0
 19 21  1  0  0  0  0
  4 21  1  0  0  0  0
 21 22  1  0  0  0  0
 23 22  1  1  0  0  0
 23 24  1  0  0  0  0
 24 25  1  0  0  0  0
 25 26  1  0  0  0  0
 26 27  1  0  0  0  0
 27 28  1  0  0  0  0
 28 29  1  0  0  0  0
 28 30  1  0  0  0  0
 27 31  1  0  0  0  0
 23 31  1  0  0  0  0
M  END
>  <StandardizerResult>
Tautomerize


>  <CdId>
3

>  <Mol Weight>
421.56

>  <Formula>
C26H32FN3O

>  <Molecule ChEMBL ID>
CHEMBL244521

>  <Molecule Max Phase>
0

>  <Molecular Weight>
421.56

>  <#RO5 Violations>
1

>  <AlogP>
5.45

>  <Compound Key>
4661

>  <Standard Type>
pKa_B1

>  <Standard Value>
9.91

>  <Comment>
'B1 Functional Group: Piperidine; Ionisation Formula: A0B1 (Functional Group: the part of the molecule the pKa refers to; Ionisation formula: AxBy where 'A' refers to acidic centers within the molecule that are appreciably ionised at a pH <= 11 and 'x' equals 0, 1 or 2; and 'B' refers to basic centers within the molecule that are appreciably ionised at a pH >= 2 and 'y' equals 0, 1, 2 or 3).'

>  <Potential Duplicate>
false

>  <Assay ChEMBL ID>
CHEMBL3301362

>  <Assay Description>
ASTRAZENECA: Most basic pKa value (pKa B1) determined by absorption and potentiometric titration using standard methodology from Sirius Analytical. Experimental range Bases: >= 2.

>  <Assay Type>
P

>  <BAO Format ID>
BAO_0000100

>  <BAO Label>
small-molecule physicochemical format

>  <Target ChEMBL ID>
CHEMBL2362975

>  <Target Name>
No relevant target

>  <Target Type>
NO TARGET

>  <Document ChEMBL ID>
CHEMBL3301361

>  <Source ID>
27

>  <Source Description>
AstraZeneca Deposited Data

>  <Strongest basic pKa>
9.15

>  <deltapKa>
0.7597825488364727

>  <Strongest basic pKa_Taut>
9.15

>  <deltapKa_TAut>
0.7597825488364727

$$$$

  Mrv1920 03272013312D          

 33 36  0  0  0  0            999 V2000
    0.0000    0.8250    0.0000 C   0  0  0  0  0  0  0  0  0  0  0  0
    0.0000    0.0000    0.0000 O   0  0  0  0  0  0  0  0  0  0  0  0
    0.7145   -0.4125    0.0000 C   0  0  0  0  0  0  0  0  0  0  0  0
    1.4289    0.0000    0.0000 C   0  0  0  0  0  0  0  0  0  0  0  0
    2.1434   -0.4125    0.0000 C   0  0  0  0  0  0  0  0  0  0  0  0
    2.8579    0.0000    0.0000 N   0  0  0  0  0  0  0  0  0  0  0  0
    3.5724   -0.4125    0.0000 C   0  0  0  0  0  0  0  0  0  0  0  0
    3.5724   -1.2375    0.0000 N   0  0  0  0  0  0  0  0  0  0  0  0
    2.8579   -1.6500    0.0000 C   0  0  0  0  0  0  0  0  0  0  0  0
    2.8579   -2.4750    0.0000 N   0  0  0  0  0  0  0  0  0  0  0  0
    3.5724   -2.8875    0.0000 C   0  0  0  0  0  0  0  0  0  0  0  0
    4.2868   -2.4750    0.0000 C   0  0  0  0  0  0  0  0  0  0  0  0
    5.0013   -2.8875    0.0000 C   0  0  0  0  0  0  0  0  0  0  0  0
    5.0013   -3.7125    0.0000 C   0  0  0  0  0  0  0  0  0  0  0  0
    5.7158   -4.1250    0.0000 F   0  0  0  0  0  0  0  0  0  0  0  0
    4.2868   -4.1250    0.0000 C   0  0  0  0  0  0  0  0  0  0  0  0
    4.2868   -4.9500    0.0000 Cl  0  0  0  0  0  0  0  0  0  0  0  0
    3.5724   -3.7125    0.0000 C   0  0  0  0  0  0  0  0  0  0  0  0
    2.1434   -1.2375    0.0000 C   0  0  0  0  0  0  0  0  0  0  0  0
    1.4289   -1.6500    0.0000 C   0  0  0  0  0  0  0  0  0  0  0  0
    0.7145   -1.2375    0.0000 C   0  0  0  0  0  0  0  0  0  0  0  0
    0.0000   -1.6500    0.0000 N   0  0  0  0  0  0  0  0  0  0  0  0
   -0.7145   -1.2375    0.0000 C   0  0  0  0  0  0  0  0  0  0  0  0
   -1.4289   -1.6500    0.0000 O   0  0  0  0  0  0  0  0  0  0  0  0
   -0.7145   -0.4125    0.0000 C   0  0  0  0  0  0  0  0  0  0  0  0
   -1.4289    0.0000    0.0000 C   0  0  0  0  0  0  0  0  0  0  0  0
   -1.4289    0.8250    0.0000 C   0  0  0  0  0  0  0  0  0  0  0  0
   -2.1434    1.2375    0.0000 N   0  0  0  0  0  0  0  0  0  0  0  0
   -2.8579    0.8250    0.0000 C   0  0  0  0  0  0  0  0  0  0  0  0
   -3.5724    1.2375    0.0000 C   0  0  0  0  0  0  0  0  0  0  0  0
   -3.5724    2.0625    0.0000 C   0  0  0  0  0  0  0  0  0  0  0  0
   -2.8579    2.4750    0.0000 C   0  0  0  0  0  0  0  0  0  0  0  0
   -2.1434    2.0625    0.0000 C   0  0  0  0  0  0  0  0  0  0  0  0
  1  2  1  0  0  0  0
  2  3  1  0  0  0  0
  3  4  2  0  0  0  0
  4  5  1  0  0  0  0
  5  6  2  0  0  0  0
  6  7  1  0  0  0  0
  7  8  2  0  0  0  0
  8  9  1  0  0  0  0
  9 10  1  0  0  0  0
 10 11  1  0  0  0  0
 11 12  2  0  0  0  0
 12 13  1  0  0  0  0
 13 14  2  0  0  0  0
 14 15  1  0  0  0  0
 14 16  1  0  0  0  0
 16 17  1  0  0  0  0
 16 18  2  0  0  0  0
 11 18  1  0  0  0  0
  9 19  2  0  0  0  0
  5 19  1  0  0  0  0
 19 20  1  0  0  0  0
 20 21  2  0  0  0  0
  3 21  1  0  0  0  0
 21 22  1  0  0  0  0
 22 23  1  0  0  0  0
 23 24  2  0  0  0  0
 23 25  1  0  0  0  0
 25 26  2  0  0  0  0
 26 27  1  0  0  0  0
 27 28  1  0  0  0  0
 28 29  1  0  0  0  0
 29 30  1  0  0  0  0
 30 31  1  0  0  0  0
 31 32  1  0  0  0  0
 32 33  1  0  0  0  0
 28 33  1  0  0  0  0
M  END
>  <StandardizerResult>
Tautomerize


>  <CdId>
47

>  <Mol Weight>
469.95

>  <Formula>
C24H25ClFN5O2

>  <Molecule ChEMBL ID>
CHEMBL2110732

>  <Molecule Name>
DACOMITINIB

>  <Molecule Max Phase>
4

>  <Molecular Weight>
469.95

>  <#RO5 Violations>
1

>  <AlogP>
5.16

>  <Compound Key>
5657

>  <Standard Type>
pKa_B1

>  <Standard Value>
9.36

>  <Comment>
'B1 Functional Group: Piperidine; Ionisation Formula: A0B2 (Functional Group: the part of the molecule the pKa refers to; Ionisation formula: AxBy where 'A' refers to acidic centers within the molecule that are appreciably ionised at a pH <= 11 and 'x' equals 0, 1 or 2; and 'B' refers to basic centers within the molecule that are appreciably ionised at a pH >= 2 and 'y' equals 0, 1, 2 or 3).'

>  <Potential Duplicate>
false

>  <Assay ChEMBL ID>
CHEMBL3301362

>  <Assay Description>
ASTRAZENECA: Most basic pKa value (pKa B1) determined by absorption and potentiometric titration using standard methodology from Sirius Analytical. Experimental range Bases: >= 2.

>  <Assay Type>
P

>  <BAO Format ID>
BAO_0000100

>  <BAO Label>
small-molecule physicochemical format

>  <Target ChEMBL ID>
CHEMBL2362975

>  <Target Name>
No relevant target

>  <Target Type>
NO TARGET

>  <Document ChEMBL ID>
CHEMBL3301361

>  <Source ID>
27

>  <Source Description>
AstraZeneca Deposited Data

>  <Strongest basic pKa>
8.55

>  <deltapKa>
0.8075091963665084

>  <Strongest basic pKa_Taut>
8.55

>  <deltapKa_TAut>
0.8075091963665084

$$$$

  Mrv1920 03272013312D          

  9 10  0  0  0  0            999 V2000
    3.3523    1.9354    0.0000 C   0  0  0  0  0  0  0  0  0  0  0  0
    3.3523    1.1104    0.0000 C   0  0  0  0  0  0  0  0  0  0  0  0
    2.6378    0.6979    0.0000 N   0  0  0  0  0  0  0  0  0  0  0  0
    1.9233    1.1104    0.0000 C   0  0  0  0  0  0  0  0  0  0  0  0
    1.1387    0.8555    0.0000 N   0  0  0  0  0  0  0  0  0  0  0  0
    0.6538    1.5229    0.0000 C   0  0  0  0  0  0  0  0  0  0  0  0
    1.1387    2.1904    0.0000 C   0  0  0  0  0  0  0  0  0  0  0  0
    1.9233    1.9354    0.0000 C   0  0  0  0  0  0  0  0  0  0  0  0
    2.6378    2.3479    0.0000 C   0  0  0  0  0  0  0  0  0  0  0  0
  1  2  2  0  0  0  0
  2  3  1  0  0  0  0
  3  4  2  0  0  0  0
  4  5  1  0  0  0  0
  5  6  1  0  0  0  0
  6  7  2  0  0  0  0
  7  8  1  0  0  0  0
  4  8  1  0  0  0  0
  8  9  2  0  0  0  0
  1  9  1  0  0  0  0
M  END
>  <StandardizerResult>
Tautomerize


>  <CdId>
24

>  <Mol Weight>
118.14

>  <Formula>
C7H6N2

>  <Molecule ChEMBL ID>
CHEMBL389685

>  <Molecule Max Phase>
0

>  <Molecular Weight>
118.14

>  <#RO5 Violations>
0

>  <AlogP>
1.56

>  <Compound Key>
355

>  <Standard Type>
pKa_B1

>  <Standard Value>
4.5

>  <Comment>
'B1 Functional Group: 1H-pyrrolo[2,3-b]pyridine; Ionisation Formula: A0B1 (Functional Group: the part of the molecule the pKa refers to; Ionisation formula: AxBy where 'A' refers to acidic centers within the molecule that are appreciably ionised at a pH <= 11 and 'x' equals 0, 1 or 2; and 'B' refers to basic centers within the molecule that are appreciably ionised at a pH >= 2 and 'y' equals 0, 1, 2 or 3).'

>  <Potential Duplicate>
false

>  <Assay ChEMBL ID>
CHEMBL3301362

>  <Assay Description>
ASTRAZENECA: Most basic pKa value (pKa B1) determined by absorption and potentiometric titration using standard methodology from Sirius Analytical. Experimental range Bases: >= 2.

>  <Assay Type>
P

>  <BAO Format ID>
BAO_0000100

>  <BAO Label>
small-molecule physicochemical format

>  <Target ChEMBL ID>
CHEMBL2362975

>  <Target Name>
No relevant target

>  <Target Type>
NO TARGET

>  <Document ChEMBL ID>
CHEMBL3301361

>  <Source ID>
27

>  <Source Description>
AstraZeneca Deposited Data

>  <Strongest basic pKa>
3.67

>  <deltapKa>
0.8272242151290445

>  <Strongest basic pKa_Taut>
3.67

>  <deltapKa_TAut>
0.8272242151290445

$$$$

  Mrv1920 03272013312D          

 22 25  0  0  0  0            999 V2000
    5.0645    1.4672    0.0000 O   0  0  0  0  0  0  0  0  0  0  0  0
    4.2575    1.6387    0.0000 C   0  0  0  0  0  0  0  0  0  0  0  0
    4.0025    2.4233    0.0000 O   0  0  0  0  0  0  0  0  0  0  0  0
    3.7054    1.0256    0.0000 C   0  0  0  0  0  0  0  0  0  0  0  0
    2.8985    1.1971    0.0000 C   0  0  0  0  0  0  0  0  0  0  0  0
    2.3464    0.5840    0.0000 C   0  0  0  0  0  0  0  0  0  0  0  0
    2.6014   -0.2006    0.0000 C   0  0  0  0  0  0  0  0  0  0  0  0
    1.9339   -0.6855    0.0000 N   0  0  0  0  0  0  0  0  0  0  0  0
    1.2665   -0.2006    0.0000 C   0  0  0  0  0  0  0  0  0  0  0  0
    0.4595   -0.3721    0.0000 C   0  0  0  0  0  0  0  0  0  0  0  0
   -0.0925    0.2410    0.0000 C   0  0  0  0  0  0  0  0  0  0  0  0
    0.1624    1.0256    0.0000 C   0  0  0  0  0  0  0  0  0  0  0  0
    0.9694    1.1971    0.0000 C   0  0  0  0  0  0  0  0  0  0  0  0
    1.5214    0.5840    0.0000 C   0  0  0  0  0  0  0  0  0  0  0  0
    3.4084   -0.3721    0.0000 C   0  0  0  0  0  0  0  0  0  0  0  0
    3.6633   -1.1567    0.0000 C   0  0  0  0  0  0  0  0  0  0  0  0
    4.4703   -1.3283    0.0000 C   0  0  0  0  0  0  0  0  0  0  0  0
    4.7252   -2.1129    0.0000 C   0  0  0  0  0  0  0  0  0  0  0  0
    4.1732   -2.7260    0.0000 C   0  0  0  0  0  0  0  0  0  0  0  0
    3.3662   -2.5545    0.0000 C   0  0  0  0  0  0  0  0  0  0  0  0
    3.1113   -1.7698    0.0000 C   0  0  0  0  0  0  0  0  0  0  0  0
    3.9604    0.2410    0.0000 N   0  0  0  0  0  0  0  0  0  0  0  0
  1  2  2  0  0  0  0
  2  3  1  0  0  0  0
  2  4  1  0  0  0  0
  4  5  1  0  0  0  0
  5  6  1  0  0  0  0
  6  7  2  0  0  0  0
  7  8  1  0  0  0  0
  8  9  1  0  0  0  0
  9 10  2  0  0  0  0
 10 11  1  0  0  0  0
 11 12  2  0  0  0  0
 12 13  1  0  0  0  0
 13 14  2  0  0  0  0
  6 14  1  0  0  0  0
  9 14  1  0  0  0  0
  7 15  1  0  0  0  0
 15 16  1  0  0  0  0
 16 17  2  0  0  0  0
 17 18  1  0  0  0  0
 18 19  2  0  0  0  0
 19 20  1  0  0  0  0
 20 21  2  0  0  0  0
 16 21  1  0  0  0  0
 15 22  1  0  0  0  0
  4 22  1  0  0  0  0
M  END
>  <StandardizerResult>
Tautomerize


>  <CdId>
122

>  <Mol Weight>
292.34

>  <Formula>
C18H16N2O2

>  <Molecule ChEMBL ID>
CHEMBL442956

>  <Molecule Max Phase>
0

>  <Molecular Weight>
292.34

>  <#RO5 Violations>
0

>  <AlogP>
2.86

>  <Compound Key>
1549

>  <Standard Type>
pKa_B1

>  <Standard Value>
8.0

>  <Comment>
'B1 Functional Group: Secondary amine; Ionisation Formula: A1B1 (Functional Group: the part of the molecule the pKa refers to; Ionisation formula: AxBy where 'A' refers to acidic centers within the molecule that are appreciably ionised at a pH <= 11 and 'x' equals 0, 1 or 2; and 'B' refers to basic centers within the molecule that are appreciably ionised at a pH >= 2 and 'y' equals 0, 1, 2 or 3).'

>  <Potential Duplicate>
false

>  <Assay ChEMBL ID>
CHEMBL3301362

>  <Assay Description>
ASTRAZENECA: Most basic pKa value (pKa B1) determined by absorption and potentiometric titration using standard methodology from Sirius Analytical. Experimental range Bases: >= 2.

>  <Assay Type>
P

>  <BAO Format ID>
BAO_0000100

>  <BAO Label>
small-molecule physicochemical format

>  <Target ChEMBL ID>
CHEMBL2362975

>  <Target Name>
No relevant target

>  <Target Type>
NO TARGET

>  <Document ChEMBL ID>
CHEMBL3301361

>  <Source ID>
27

>  <Source Description>
AstraZeneca Deposited Data

>  <Strongest basic pKa>
7.17

>  <deltapKa>
0.8306714187595494

>  <Strongest basic pKa_Taut>
7.17

>  <deltapKa_TAut>
0.8306714187595494

$$$$

  Mrv1920 03272013312D          

  8  8  0  0  0  0            999 V2000
    0.5678    1.9393    0.0000 C   0  0  0  0  0  0  0  0  0  0  0  0
    0.5678    1.1143    0.0000 C   0  0  0  0  0  0  0  0  0  0  0  0
    1.2352    0.6294    0.0000 N   0  0  0  0  0  0  0  0  0  0  0  0
    0.9803   -0.1553    0.0000 C   0  0  0  0  0  0  0  0  0  0  0  0
    1.4652   -0.8227    0.0000 N   0  0  0  0  0  0  0  0  0  0  0  0
    0.1553   -0.1553    0.0000 S   0  0  0  0  0  0  0  0  0  0  0  0
   -0.0997    0.6294    0.0000 C   0  0  0  0  0  0  0  0  0  0  0  0
   -0.8843    0.8843    0.0000 C   0  0  0  0  0  0  0  0  0  0  0  0
  1  2  1  0  0  0  0
  2  3  1  0  0  0  0
  3  4  2  0  0  0  0
  4  5  1  0  0  0  0
  4  6  1  0  0  0  0
  6  7  1  0  0  0  0
  2  7  2  0  0  0  0
  7  8  1  0  0  0  0
M  END
>  <StandardizerResult>
Tautomerize


>  <CdId>
5

>  <Mol Weight>
128.19

>  <Formula>
C5H8N2S

>  <Molecule ChEMBL ID>
CHEMBL450172

>  <Molecule Max Phase>
0

>  <Molecular Weight>
128.2

>  <#RO5 Violations>
0

>  <AlogP>
1.17

>  <Compound Key>
522

>  <Standard Type>
pKa_B1

>  <Standard Value>
6.3

>  <Comment>
'B1 Functional Group: 2-Thiazolamine; Ionisation Formula: A0B1 (Functional Group: the part of the molecule the pKa refers to; Ionisation formula: AxBy where 'A' refers to acidic centers within the molecule that are appreciably ionised at a pH <= 11 and 'x' equals 0, 1 or 2; and 'B' refers to basic centers within the molecule that are appreciably ionised at a pH >= 2 and 'y' equals 0, 1, 2 or 3).'

>  <Potential Duplicate>
false

>  <Assay ChEMBL ID>
CHEMBL3301362

>  <Assay Description>
ASTRAZENECA: Most basic pKa value (pKa B1) determined by absorption and potentiometric titration using standard methodology from Sirius Analytical. Experimental range Bases: >= 2.

>  <Assay Type>
P

>  <BAO Format ID>
BAO_0000100

>  <BAO Label>
small-molecule physicochemical format

>  <Target ChEMBL ID>
CHEMBL2362975

>  <Target Name>
No relevant target

>  <Target Type>
NO TARGET

>  <Document ChEMBL ID>
CHEMBL3301361

>  <Source ID>
27

>  <Source Description>
AstraZeneca Deposited Data

>  <Strongest basic pKa>
10.51

>  <deltapKa>
-4.208833908562517

>  <Strongest basic pKa_Taut>
5.46

>  <deltapKa_TAut>
0.841534567516363

$$$$

  Mrv1920 03272013312D          

 16 18  0  0  0  0            999 V2000
    3.0332    1.6803    0.0000 N   0  0  0  0  0  0  0  0  0  0  0  0
    3.3912    0.9370    0.0000 C   0  0  0  0  0  0  0  0  0  0  0  0
    4.2162    0.9370    0.0000 N   0  0  0  0  0  0  0  0  0  0  0  0
    4.7305    0.2920    0.0000 C   0  0  0  0  0  0  0  0  0  0  0  0
    5.5189    0.5352    0.0000 C   0  0  0  0  0  0  0  0  0  0  0  0
    6.1237   -0.0260    0.0000 C   0  0  0  0  0  0  0  0  0  0  0  0
    5.9401   -0.8303    0.0000 C   0  0  0  0  0  0  0  0  0  0  0  0
    5.1517   -1.0735    0.0000 C   0  0  0  0  0  0  0  0  0  0  0  0
    4.5470   -0.5123    0.0000 C   0  0  0  0  0  0  0  0  0  0  0  0
    3.8037   -0.8703    0.0000 S   0  0  0  0  0  0  0  0  0  0  0  0
    3.0604   -0.5123    0.0000 C   0  0  0  0  0  0  0  0  0  0  0  0
    2.4556   -1.0735    0.0000 C   0  0  0  0  0  0  0  0  0  0  0  0
    1.6673   -0.8303    0.0000 C   0  0  0  0  0  0  0  0  0  0  0  0
    1.4837   -0.0260    0.0000 C   0  0  0  0  0  0  0  0  0  0  0  0
    2.0884    0.5352    0.0000 C   0  0  0  0  0  0  0  0  0  0  0  0
    2.8768    0.2920    0.0000 C   0  0  0  0  0  0  0  0  0  0  0  0
  1  2  1  0  0  0  0
  2  3  2  0  0  0  0
  3  4  1  0  0  0  0
  4  5  2  0  0  0  0
  5  6  1  0  0  0  0
  6  7  2  0  0  0  0
  7  8  1  0  0  0  0
  8  9  2  0  0  0  0
  4  9  1  0  0  0  0
  9 10  1  0  0  0  0
 10 11  1  0  0  0  0
 11 12  2  0  0  0  0
 12 13  1  0  0  0  0
 13 14  2  0  0  0  0
 14 15  1  0  0  0  0
 15 16  2  0  0  0  0
 11 16  1  0  0  0  0
  2 16  1  0  0  0  0
M  END
>  <StandardizerResult>
Tautomerize


>  <CdId>
29

>  <Mol Weight>
226.3

>  <Formula>
C13H10N2S

>  <Molecule ChEMBL ID>
CHEMBL2000014

>  <Molecule Max Phase>
0

>  <Molecular Weight>
226.3

>  <#RO5 Violations>
0

>  <AlogP>
3.19

>  <Compound Key>
1579

>  <Standard Type>
pKa_B1

>  <Standard Value>
7.2

>  <Comment>
'B1 Functional Group: Dibenzo[b,f][1,4]thiazepin-11-amine; Ionisation Formula: A0B1 (Functional Group: the part of the molecule the pKa refers to; Ionisation formula: AxBy where 'A' refers to acidic centers within the molecule that are appreciably ionised at a pH <= 11 and 'x' equals 0, 1 or 2; and 'B' refers to basic centers within the molecule that are appreciably ionised at a pH >= 2 and 'y' equals 0, 1, 2 or 3).'

>  <Potential Duplicate>
false

>  <Assay ChEMBL ID>
CHEMBL3301362

>  <Assay Description>
ASTRAZENECA: Most basic pKa value (pKa B1) determined by absorption and potentiometric titration using standard methodology from Sirius Analytical. Experimental range Bases: >= 2.

>  <Assay Type>
P

>  <BAO Format ID>
BAO_0000100

>  <BAO Label>
small-molecule physicochemical format

>  <Target ChEMBL ID>
CHEMBL2362975

>  <Target Name>
No relevant target

>  <Target Type>
NO TARGET

>  <Document ChEMBL ID>
CHEMBL3301361

>  <Source ID>
27

>  <Source Description>
AstraZeneca Deposited Data

>  <Strongest basic pKa>
6.34

>  <deltapKa>
0.8645713584174635

>  <Strongest basic pKa_Taut>
6.34

>  <deltapKa_TAut>
0.8645713584174635

$$$$

  Mrv1920 03272013312D          

 34 38  0  0  0  0            999 V2000
   -5.1212    5.0178    0.0000 C   0  0  0  0  0  0  0  0  0  0  0  0
   -4.2962    5.0178    0.0000 O   0  0  0  0  0  0  0  0  0  0  0  0
   -3.8837    4.3034    0.0000 C   0  0  0  0  0  0  0  0  0  0  0  0
   -3.0587    4.3034    0.0000 C   0  0  0  0  0  0  0  0  0  0  0  0
   -2.6462    3.5889    0.0000 C   0  0  0  0  0  0  0  0  0  0  0  0
   -3.0587    2.8744    0.0000 C   0  0  0  0  0  0  0  0  0  0  0  0
   -2.6462    2.1599    0.0000 C   0  0  0  0  0  0  0  0  0  0  0  0
   -1.8212    2.1599    0.0000 C   0  0  0  0  0  0  0  0  0  0  0  0
   -1.4087    1.4455    0.0000 N   0  0  0  0  0  0  0  0  0  0  0  0
   -0.5837    1.4455    0.0000 C   0  0  0  0  0  0  0  0  0  0  0  0
   -0.1712    0.7310    0.0000 C   0  0  0  0  0  0  0  0  0  0  0  0
   -0.5837    0.0165    0.0000 C   0  0  0  0  0  0  0  0  0  0  0  0
   -0.1712   -0.6979    0.0000 N   0  0  0  0  0  0  0  0  0  0  0  0
    0.6538   -0.6979    0.0000 C   0  0  0  0  0  0  0  0  0  0  0  0
    1.1387   -0.0305    0.0000 N   0  0  0  0  0  0  0  0  0  0  0  0
    1.9233   -0.2854    0.0000 C   0  0  0  0  0  0  0  0  0  0  0  0
    2.6378    0.1271    0.0000 C   0  0  0  0  0  0  0  0  0  0  0  0
    3.3523   -0.2854    0.0000 C   0  0  0  0  0  0  0  0  0  0  0  0
    3.3523   -1.1104    0.0000 C   0  0  0  0  0  0  0  0  0  0  0  0
    2.6378   -1.5229    0.0000 C   0  0  0  0  0  0  0  0  0  0  0  0
    1.9233   -1.1104    0.0000 C   0  0  0  0  0  0  0  0  0  0  0  0
    1.1387   -1.3654    0.0000 N   0  0  0  0  0  0  0  0  0  0  0  0
    0.8838   -2.1500    0.0000 C   0  0  0  0  0  0  0  0  0  0  0  0
    1.4358   -2.7631    0.0000 C   0  0  0  0  0  0  0  0  0  0  0  0
    2.2428   -2.5916    0.0000 C   0  0  0  0  0  0  0  0  0  0  0  0
    2.7948   -3.2047    0.0000 C   0  0  0  0  0  0  0  0  0  0  0  0
    2.5399   -3.9893    0.0000 C   0  0  0  0  0  0  0  0  0  0  0  0
    3.0919   -4.6024    0.0000 F   0  0  0  0  0  0  0  0  0  0  0  0
    1.7329   -4.1608    0.0000 C   0  0  0  0  0  0  0  0  0  0  0  0
    1.1809   -3.5477    0.0000 C   0  0  0  0  0  0  0  0  0  0  0  0
   -1.4087    0.0165    0.0000 C   0  0  0  0  0  0  0  0  0  0  0  0
   -1.8212    0.7310    0.0000 C   0  0  0  0  0  0  0  0  0  0  0  0
   -3.8837    2.8744    0.0000 C   0  0  0  0  0  0  0  0  0  0  0  0
   -4.2962    3.5889    0.0000 C   0  0  0  0  0  0  0  0  0  0  0  0
  1  2  1  0  0  0  0
  2  3  1  0  0  0  0
  3  4  2  0  0  0  0
  4  5  1  0  0  0  0
  5  6  2  0  0  0  0
  6  7  1  0  0  0  0
  7  8  1  0  0  0  0
  8  9  1  0  0  0  0
  9 10  1  0  0  0  0
 10 11  1  0  0  0  0
 11 12  1  0  0  0  0
 12 13  1  0  0  0  0
 13 14  1  0  0  0  0
 14 15  2  0  0  0  0
 15 16  1  0  0  0  0
 16 17  2  0  0  0  0
 17 18  1  0  0  0  0
 18 19  2  0  0  0  0
 19 20  1  0  0  0  0
 20 21  2  0  0  0  0
 16 21  1  0  0  0  0
 21 22  1  0  0  0  0
 14 22  1  0  0  0  0
 22 23  1  0  0  0  0
 23 24  1  0  0  0  0
 24 25  2  0  0  0  0
 25 26  1  0  0  0  0
 26 27  2  0  0  0  0
 27 28  1  0  0  0  0
 27 29  1  0  0  0  0
 29 30  2  0  0  0  0
 24 30  1  0  0  0  0
 12 31  1  0  0  0  0
 31 32  1  0  0  0  0
  9 32  1  0  0  0  0
  6 33  1  0  0  0  0
 33 34  2  0  0  0  0
  3 34  1  0  0  0  0
M  END
>  <StandardizerResult>
Tautomerize


>  <CdId>
240

>  <Mol Weight>
458.58

>  <Formula>
C28H31FN4O

>  <Molecule ChEMBL ID>
CHEMBL296419

>  <Molecule Name>
ASTEMIZOLE

>  <Molecule Max Phase>
4

>  <Molecular Weight>
458.58

>  <#RO5 Violations>
1

>  <AlogP>
5.35

>  <Compound Key>
1378

>  <Standard Type>
pKa_B1

>  <Standard Value>
9.62

>  <Comment>
'B1 Functional Group: Piperidine; Ionisation Formula: A0B2 (Functional Group: the part of the molecule the pKa refers to; Ionisation formula: AxBy where 'A' refers to acidic centers within the molecule that are appreciably ionised at a pH <= 11 and 'x' equals 0, 1 or 2; and 'B' refers to basic centers within the molecule that are appreciably ionised at a pH >= 2 and 'y' equals 0, 1, 2 or 3).'

>  <Potential Duplicate>
false

>  <Assay ChEMBL ID>
CHEMBL3301362

>  <Assay Description>
ASTRAZENECA: Most basic pKa value (pKa B1) determined by absorption and potentiometric titration using standard methodology from Sirius Analytical. Experimental range Bases: >= 2.

>  <Assay Type>
P

>  <BAO Format ID>
BAO_0000100

>  <BAO Label>
small-molecule physicochemical format

>  <Target ChEMBL ID>
CHEMBL2362975

>  <Target Name>
No relevant target

>  <Target Type>
NO TARGET

>  <Document ChEMBL ID>
CHEMBL3301361

>  <Source ID>
27

>  <Source Description>
AstraZeneca Deposited Data

>  <Strongest basic pKa>
8.73

>  <deltapKa>
0.8861385482982698

>  <Strongest basic pKa_Taut>
8.73

>  <deltapKa_TAut>
0.8861385482982698

$$$$

  Mrv1920 03272013312D          

 22 25  0  0  0  0            999 V2000
    3.5723    3.7125    0.0000 C   0  0  0  0  0  0  0  0  0  0  0  0
    3.5631    2.8876    0.0000 N   0  0  0  0  0  0  0  0  0  0  0  0
    4.2729    2.4671    0.0000 C   0  0  0  0  0  0  0  0  0  0  0  0
    4.2637    1.6422    0.0000 C   0  0  0  0  0  0  0  0  0  0  0  0
    3.5447    1.2377    0.0000 C   0  0  0  0  0  0  0  0  0  0  0  0
    3.5354    0.4127    0.0000 C   0  0  0  0  0  0  0  0  0  0  0  0
    4.2747    0.0465    0.0000 C   0  0  0  0  0  0  0  0  0  0  0  0
    4.8857    0.6008    0.0000 C   0  0  0  0  0  0  0  0  0  0  0  0
    5.6713    0.3489    0.0000 C   0  0  0  0  0  0  0  0  0  0  0  0
    5.8459   -0.4575    0.0000 C   0  0  0  0  0  0  0  0  0  0  0  0
    5.2349   -1.0118    0.0000 C   0  0  0  0  0  0  0  0  0  0  0  0
    4.4493   -0.7598    0.0000 C   0  0  0  0  0  0  0  0  0  0  0  0
    3.9277   -1.3991    0.0000 C   0  0  0  0  0  0  0  0  0  0  0  0
    3.1028   -1.3898    0.0000 C   0  0  0  0  0  0  0  0  0  0  0  0
    2.7365   -2.1291    0.0000 O   0  0  0  0  0  0  0  0  0  0  0  0
    2.5956   -0.7391    0.0000 C   0  0  0  0  0  0  0  0  0  0  0  0
    1.7732   -0.8039    0.0000 S   0  0  0  0  0  0  0  0  0  0  0  0
    1.4574   -0.0417    0.0000 C   0  0  0  0  0  0  0  0  0  0  0  0
    2.0847    0.4941    0.0000 C   0  0  0  0  0  0  0  0  0  0  0  0
    2.7882    0.0631    0.0000 C   0  0  0  0  0  0  0  0  0  0  0  0
    2.8349    1.6581    0.0000 C   0  0  0  0  0  0  0  0  0  0  0  0
    2.8441    2.4831    0.0000 C   0  0  0  0  0  0  0  0  0  0  0  0
  1  2  1  0  0  0  0
  2  3  1  0  0  0  0
  3  4  1  0  0  0  0
  4  5  1  0  0  0  0
  5  6  2  0  0  0  0
  6  7  1  0  0  0  0
  7  8  2  0  0  0  0
  8  9  1  0  0  0  0
  9 10  2  0  0  0  0
 10 11  1  0  0  0  0
 11 12  2  0  0  0  0
  7 12  1  0  0  0  0
 12 13  1  0  0  0  0
 13 14  2  0  0  0  0
 14 15  1  0  0  0  0
 14 16  1  0  0  0  0
 16 17  1  0  0  0  0
 17 18  1  0  0  0  0
 18 19  2  0  0  0  0
 19 20  1  0  0  0  0
 16 20  2  0  0  0  0
  6 20  1  0  0  0  0
  5 21  1  0  0  0  0
 21 22  1  0  0  0  0
  2 22  1  0  0  0  0
M  END
>  <StandardizerResult>
Tautomerize


>  <CdId>
71

>  <Mol Weight>
309.43

>  <Formula>
C19H19NOS

>  <Molecule ChEMBL ID>
CHEMBL534

>  <Molecule Name>
KETOTIFEN

>  <Molecule Max Phase>
4

>  <Molecular Weight>
309.43

>  <#RO5 Violations>
0

>  <AlogP>
4.01

>  <Compound Key>
649

>  <Standard Type>
pKa_B1

>  <Standard Value>
9.0

>  <Comment>
'B1 Functional Group: Piperidine; Ionisation Formula: A0B1 (Functional Group: the part of the molecule the pKa refers to; Ionisation formula: AxBy where 'A' refers to acidic centers within the molecule that are appreciably ionised at a pH <= 11 and 'x' equals 0, 1 or 2; and 'B' refers to basic centers within the molecule that are appreciably ionised at a pH >= 2 and 'y' equals 0, 1, 2 or 3).'

>  <Potential Duplicate>
false

>  <Assay ChEMBL ID>
CHEMBL3301362

>  <Assay Description>
ASTRAZENECA: Most basic pKa value (pKa B1) determined by absorption and potentiometric titration using standard methodology from Sirius Analytical. Experimental range Bases: >= 2.

>  <Assay Type>
P

>  <BAO Format ID>
BAO_0000100

>  <BAO Label>
small-molecule physicochemical format

>  <Target ChEMBL ID>
CHEMBL2362975

>  <Target Name>
No relevant target

>  <Target Type>
NO TARGET

>  <Document ChEMBL ID>
CHEMBL3301361

>  <Source ID>
27

>  <Source Description>
AstraZeneca Deposited Data

>  <Strongest basic pKa>
7.75

>  <deltapKa>
1.254083467926601

>  <Strongest basic pKa_Taut>
8.11

>  <deltapKa_TAut>
0.8908757102760134

$$$$

  Mrv1920 03272013312D          

 34 38  0  0  0  0            999 V2000
    0.2934   -5.2954    0.0000 O   0  0  0  0  0  0  0  0  0  0  0  0
   -0.5136   -5.1239    0.0000 S   0  0  0  0  0  0  0  0  0  0  0  0
   -1.3205   -4.9524    0.0000 O   0  0  0  0  0  0  0  0  0  0  0  0
   -0.6851   -5.9309    0.0000 N   0  0  0  0  0  0  0  0  0  0  0  0
   -0.0720   -6.4829    0.0000 C   0  0  0  0  0  0  0  0  0  0  0  0
    0.7350   -6.3114    0.0000 N   0  0  0  0  0  0  0  0  0  0  0  0
    1.1475   -7.0259    0.0000 C   0  0  0  0  0  0  0  0  0  0  0  0
    0.5954   -7.6389    0.0000 N   0  0  0  0  0  0  0  0  0  0  0  0
   -0.1582   -7.3034    0.0000 S   0  0  0  0  0  0  0  0  0  0  0  0
   -0.3420   -4.3169    0.0000 C   0  0  0  0  0  0  0  0  0  0  0  0
   -0.9551   -3.7649    0.0000 C   0  0  0  0  0  0  0  0  0  0  0  0
   -0.7836   -2.9579    0.0000 C   0  0  0  0  0  0  0  0  0  0  0  0
   -1.3967   -2.4059    0.0000 F   0  0  0  0  0  0  0  0  0  0  0  0
    0.0010   -2.7030    0.0000 C   0  0  0  0  0  0  0  0  0  0  0  0
    0.1725   -1.8960    0.0000 O   0  0  0  0  0  0  0  0  0  0  0  0
   -0.4406   -1.3440    0.0000 C   0  0  0  0  0  0  0  0  0  0  0  0
   -1.2252   -1.5989    0.0000 C   0  0  0  0  0  0  0  0  0  0  0  0
   -1.8383   -1.0469    0.0000 C   0  0  0  0  0  0  0  0  0  0  0  0
   -1.6667   -0.2399    0.0000 C   0  0  0  0  0  0  0  0  0  0  0  0
   -2.2798    0.3121    0.0000 Cl  0  0  0  0  0  0  0  0  0  0  0  0
   -0.8821    0.0150    0.0000 C   0  0  0  0  0  0  0  0  0  0  0  0
   -0.2690   -0.5370    0.0000 C   0  0  0  0  0  0  0  0  0  0  0  0
    0.5156   -0.2821    0.0000 C   0  0  0  0  0  0  0  0  0  0  0  0
    0.7705    0.5025    0.0000 C   0  0  0  0  0  0  0  0  0  0  0  0
    1.5955    0.5025    0.0000 C   0  0  0  0  0  0  0  0  0  0  0  0
    1.8505   -0.2821    0.0000 N   0  0  0  0  0  0  0  0  0  0  0  0
    1.1830   -0.7670    0.0000 N   0  0  0  0  0  0  0  0  0  0  0  0
    1.1830   -1.5920    0.0000 C   0  0  0  0  0  0  0  0  0  0  0  0
    1.7664   -2.1754    0.0000 C   0  0  0  0  0  0  0  0  0  0  0  0
    1.1830   -2.7587    0.0000 N   0  0  0  0  0  0  0  0  0  0  0  0
    0.5997   -2.1754    0.0000 C   0  0  0  0  0  0  0  0  0  0  0  0
    0.6141   -3.2550    0.0000 C   0  0  0  0  0  0  0  0  0  0  0  0
    0.4426   -4.0620    0.0000 C   0  0  0  0  0  0  0  0  0  0  0  0
    1.0557   -4.6140    0.0000 F   0  0  0  0  0  0  0  0  0  0  0  0
  1  2  2  0  0  0  0
  2  3  2  0  0  0  0
  2  4  1  0  0  0  0
  4  5  1  0  0  0  0
  5  6  2  0  0  0  0
  6  7  1  0  0  0  0
  7  8  2  0  0  0  0
  8  9  1  0  0  0  0
  5  9  1  0  0  0  0
  2 10  1  0  0  0  0
 10 11  2  0  0  0  0
 11 12  1  0  0  0  0
 12 13  1  0  0  0  0
 12 14  2  0  0  0  0
 14 15  1  0  0  0  0
 15 16  1  0  0  0  0
 16 17  2  0  0  0  0
 17 18  1  0  0  0  0
 18 19  2  0  0  0  0
 19 20  1  0  0  0  0
 19 21  1  0  0  0  0
 21 22  2  0  0  0  0
 16 22  1  0  0  0  0
 22 23  1  0  0  0  0
 23 24  2  0  0  0  0
 24 25  1  0  0  0  0
 25 26  2  0  0  0  0
 26 27  1  0  0  0  0
 23 27  1  0  0  0  0
 27 28  1  0  0  0  0
 28 29  1  0  0  0  0
 29 30  1  0  0  0  0
 30 31  1  0  0  0  0
 28 31  1  0  0  0  0
 14 32  1  0  0  0  0
 32 33  2  0  0  0  0
 10 33  1  0  0  0  0
 33 34  1  0  0  0  0
M  END
>  <StandardizerResult>
Tautomerize


>  <CdId>
141

>  <Mol Weight>
524.95

>  <Formula>
C20H15ClF2N6O3S2

>  <Molecule ChEMBL ID>
CHEMBL2325642

>  <Molecule Max Phase>
0

>  <Molecular Weight>
524.96

>  <#RO5 Violations>
1

>  <AlogP>
4.07

>  <Compound Key>
5654

>  <Standard Type>
pKa_B1

>  <Standard Value>
10.13

>  <Comment>
'B1 Functional Group: Azetidine; Ionisation Formula: A1B1 (Functional Group: the part of the molecule the pKa refers to; Ionisation formula: AxBy where 'A' refers to acidic centers within the molecule that are appreciably ionised at a pH <= 11 and 'x' equals 0, 1 or 2; and 'B' refers to basic centers within the molecule that are appreciably ionised at a pH >= 2 and 'y' equals 0, 1, 2 or 3).'

>  <Potential Duplicate>
false

>  <Assay ChEMBL ID>
CHEMBL3301362

>  <Assay Description>
ASTRAZENECA: Most basic pKa value (pKa B1) determined by absorption and potentiometric titration using standard methodology from Sirius Analytical. Experimental range Bases: >= 2.

>  <Assay Type>
P

>  <BAO Format ID>
BAO_0000100

>  <BAO Label>
small-molecule physicochemical format

>  <Target ChEMBL ID>
CHEMBL2362975

>  <Target Name>
No relevant target

>  <Target Type>
NO TARGET

>  <Document ChEMBL ID>
CHEMBL3301361

>  <Source ID>
27

>  <Source Description>
AstraZeneca Deposited Data

>  <Strongest basic pKa>
9.21

>  <deltapKa>
0.9202007719679166

>  <Strongest basic pKa_Taut>
9.21

>  <deltapKa_TAut>
0.9202007719679166

$$$$

  Mrv1920 03272013312D          

 29 32  0  0  1  0            999 V2000
    0.0000    0.0000    0.0000 C   0  0  0  0  0  0  0  0  0  0  0  0
    0.7145   -0.4125    0.0000 C   0  0  0  0  0  0  0  0  0  0  0  0
    1.4289    0.0000    0.0000 N   0  0  0  0  0  0  0  0  0  0  0  0
    2.1434   -0.4125    0.0000 C   0  0  0  0  0  0  0  0  0  0  0  0
    2.8579    0.0000    0.0000 C   0  0  0  0  0  0  0  0  0  0  0  0
    3.5724   -0.4125    0.0000 C   0  0  0  0  0  0  0  0  0  0  0  0
    3.5724   -1.2375    0.0000 C   0  0  0  0  0  0  0  0  0  0  0  0
    4.2868   -1.6500    0.0000 C   0  0  0  0  0  0  0  0  0  0  0  0
    5.0013   -1.2375    0.0000 C   0  0  0  0  0  0  0  0  0  0  0  0
    5.7158   -1.6500    0.0000 C   0  0  0  0  0  0  0  0  0  0  0  0
    5.7158   -2.4750    0.0000 C   0  0  0  0  0  0  0  0  0  0  0  0
    6.4302   -2.8875    0.0000 Cl  0  0  0  0  0  0  0  0  0  0  0  0
    5.0013   -2.8875    0.0000 C   0  0  0  0  0  0  0  0  0  0  0  0
    4.2868   -2.4750    0.0000 C   0  0  0  0  0  0  0  0  0  0  0  0
    2.8579   -1.6500    0.0000 C   0  0  0  0  0  0  0  0  0  0  0  0
    2.1434   -1.2375    0.0000 C   0  0  0  0  0  0  0  0  0  0  0  0
    1.4289   -1.6500    0.0000 C   0  0  0  0  0  0  0  0  0  0  0  0
    1.4289   -2.4750    0.0000 O   0  0  0  0  0  0  0  0  0  0  0  0
    0.7145   -1.2375    0.0000 N   0  0  0  0  0  0  0  0  0  0  0  0
    0.0000   -1.6500    0.0000 C   0  0  0  0  0  0  0  0  0  0  0  0
    0.0000   -2.4750    0.0000 C   0  0  1  0  0  0  0  0  0  0  0  0
    0.7145   -2.8875    0.0000 C   0  0  0  0  0  0  0  0  0  0  0  0
    0.7145   -3.7125    0.0000 C   0  0  0  0  0  0  0  0  0  0  0  0
    0.0000   -4.1250    0.0000 C   0  0  0  0  0  0  0  0  0  0  0  0
   -0.7145   -3.7125    0.0000 N   0  0  0  0  0  0  0  0  0  0  0  0
   -1.4289   -4.1250    0.0000 C   0  0  0  0  0  0  0  0  0  0  0  0
   -1.4289   -4.9500    0.0000 C   0  0  0  0  0  0  0  0  0  0  0  0
   -2.1434   -3.7125    0.0000 C   0  0  0  0  0  0  0  0  0  0  0  0
   -0.7145   -2.8875    0.0000 C   0  0  0  0  0  0  0  0  0  0  0  0
  1  2  1  0  0  0  0
  2  3  2  0  0  0  0
  3  4  1  0  0  0  0
  4  5  2  0  0  0  0
  5  6  1  0  0  0  0
  6  7  2  0  0  0  0
  7  8  1  0  0  0  0
  8  9  2  0  0  0  0
  9 10  1  0  0  0  0
 10 11  2  0  0  0  0
 11 12  1  0  0  0  0
 11 13  1  0  0  0  0
 13 14  2  0  0  0  0
  8 14  1  0  0  0  0
  7 15  1  0  0  0  0
 15 16  2  0  0  0  0
  4 16  1  0  0  0  0
 16 17  1  0  0  0  0
 17 18  2  0  0  0  0
 17 19  1  0  0  0  0
  2 19  1  0  0  0  0
 19 20  1  0  0  0  0
 21 20  1  1  0  0  0
 21 22  1  0  0  0  0
 22 23  1  0  0  0  0
 23 24  1  0  0  0  0
 24 25  1  0  0  0  0
 25 26  1  0  0  0  0
 26 27  1  0  0  0  0
 26 28  1  0  0  0  0
 25 29  1  0  0  0  0
 21 29  1  0  0  0  0
M  END
>  <StandardizerResult>
Tautomerize


>  <CdId>
237

>  <Mol Weight>
409.96

>  <Formula>
C24H28ClN3O

>  <Molecule ChEMBL ID>
CHEMBL244936

>  <Molecule Max Phase>
0

>  <Molecular Weight>
409.96

>  <#RO5 Violations>
1

>  <AlogP>
5.15

>  <Compound Key>
4655

>  <Standard Type>
pKa_B1

>  <Standard Value>
10.09

>  <Comment>
'B1 Functional Group: Piperidine; Ionisation Formula: A0B1 (Functional Group: the part of the molecule the pKa refers to; Ionisation formula: AxBy where 'A' refers to acidic centers within the molecule that are appreciably ionised at a pH <= 11 and 'x' equals 0, 1 or 2; and 'B' refers to basic centers within the molecule that are appreciably ionised at a pH >= 2 and 'y' equals 0, 1, 2 or 3).'

>  <Potential Duplicate>
false

>  <Assay ChEMBL ID>
CHEMBL3301362

>  <Assay Description>
ASTRAZENECA: Most basic pKa value (pKa B1) determined by absorption and potentiometric titration using standard methodology from Sirius Analytical. Experimental range Bases: >= 2.

>  <Assay Type>
P

>  <BAO Format ID>
BAO_0000100

>  <BAO Label>
small-molecule physicochemical format

>  <Target ChEMBL ID>
CHEMBL2362975

>  <Target Name>
No relevant target

>  <Target Type>
NO TARGET

>  <Document ChEMBL ID>
CHEMBL3301361

>  <Source ID>
27

>  <Source Description>
AstraZeneca Deposited Data

>  <Strongest basic pKa>
9.15

>  <deltapKa>
0.9397887733408155

>  <Strongest basic pKa_Taut>
9.15

>  <deltapKa_TAut>
0.9397887733408155

$$$$

  Mrv1920 03272013312D          

 28 31  0  0  0  0            999 V2000
   -0.6459   -6.8577    0.0000 C   0  0  0  0  0  0  0  0  0  0  0  0
   -0.3909   -6.0731    0.0000 C   0  0  0  0  0  0  0  0  0  0  0  0
    0.4161   -5.9016    0.0000 O   0  0  0  0  0  0  0  0  0  0  0  0
   -0.9429   -5.4600    0.0000 N   0  0  0  0  0  0  0  0  0  0  0  0
   -0.6880   -4.6754    0.0000 C   0  0  0  0  0  0  0  0  0  0  0  0
   -1.2400   -4.0623    0.0000 C   0  0  0  0  0  0  0  0  0  0  0  0
   -0.9851   -3.2777    0.0000 C   0  0  0  0  0  0  0  0  0  0  0  0
   -0.1781   -3.1062    0.0000 C   0  0  0  0  0  0  0  0  0  0  0  0
    0.0768   -2.3215    0.0000 C   0  0  0  0  0  0  0  0  0  0  0  0
    0.8838   -2.1500    0.0000 N   0  0  0  0  0  0  0  0  0  0  0  0
    1.1387   -1.3654    0.0000 C   0  0  0  0  0  0  0  0  0  0  0  0
    0.6538   -0.6979    0.0000 N   0  0  0  0  0  0  0  0  0  0  0  0
    1.1387   -0.0305    0.0000 N   0  0  0  0  0  0  0  0  0  0  0  0
    1.9233   -0.2854    0.0000 C   0  0  0  0  0  0  0  0  0  0  0  0
    2.6378    0.1271    0.0000 C   0  0  0  0  0  0  0  0  0  0  0  0
    3.3523   -0.2854    0.0000 C   0  0  0  0  0  0  0  0  0  0  0  0
    3.3523   -1.1104    0.0000 N   0  0  0  0  0  0  0  0  0  0  0  0
    2.6378   -1.5229    0.0000 C   0  0  0  0  0  0  0  0  0  0  0  0
    2.6378   -2.3479    0.0000 O   0  0  0  0  0  0  0  0  0  0  0  0
    3.3523   -2.7604    0.0000 C   0  0  0  0  0  0  0  0  0  0  0  0
    4.0668   -2.3479    0.0000 C   0  0  0  0  0  0  0  0  0  0  0  0
    4.7812   -2.7604    0.0000 C   0  0  0  0  0  0  0  0  0  0  0  0
    4.7812   -3.5854    0.0000 C   0  0  0  0  0  0  0  0  0  0  0  0
    4.0668   -3.9979    0.0000 C   0  0  0  0  0  0  0  0  0  0  0  0
    3.3523   -3.5854    0.0000 C   0  0  0  0  0  0  0  0  0  0  0  0
    1.9233   -1.1104    0.0000 C   0  0  0  0  0  0  0  0  0  0  0  0
    0.3739   -3.7192    0.0000 C   0  0  0  0  0  0  0  0  0  0  0  0
    0.1190   -4.5039    0.0000 C   0  0  0  0  0  0  0  0  0  0  0  0
  1  2  1  0  0  0  0
  2  3  2  0  0  0  0
  2  4  1  0  0  0  0
  4  5  1  0  0  0  0
  5  6  2  0  0  0  0
  6  7  1  0  0  0  0
  7  8  2  0  0  0  0
  8  9  1  0  0  0  0
  9 10  1  0  0  0  0
 10 11  1  0  0  0  0
 11 12  1  0  0  0  0
 12 13  1  0  0  0  0
 13 14  2  0  0  0  0
 14 15  1  0  0  0  0
 15 16  2  0  0  0  0
 16 17  1  0  0  0  0
 17 18  2  0  0  0  0
 18 19  1  0  0  0  0
 19 20  1  0  0  0  0
 20 21  2  0  0  0  0
 21 22  1  0  0  0  0
 22 23  2  0  0  0  0
 23 24  1  0  0  0  0
 24 25  2  0  0  0  0
 20 25  1  0  0  0  0
 18 26  1  0  0  0  0
 11 26  2  0  0  0  0
 14 26  1  0  0  0  0
  8 27  1  0  0  0  0
 27 28  2  0  0  0  0
  5 28  1  0  0  0  0
M  END
>  <StandardizerResult>
Tautomerize


>  <CdId>
28

>  <Mol Weight>
373.42

>  <Formula>
C21H19N5O2

>  <Molecule ChEMBL ID>
CHEMBL191553

>  <Molecule Max Phase>
0

>  <Molecular Weight>
373.42

>  <#RO5 Violations>
0

>  <AlogP>
4.32

>  <Compound Key>
1697

>  <Standard Type>
pKa_B1

>  <Standard Value>
3.2

>  <Comment>
'B1 Functional Group: 2H-pyrazolo[4,3-c]pyridin-3-amine; Ionisation Formula: A0B1 (Functional Group: the part of the molecule the pKa refers to; Ionisation formula: AxBy where 'A' refers to acidic centers within the molecule that are appreciably ionised at a pH <= 11 and 'x' equals 0, 1 or 2; and 'B' refers to basic centers within the molecule that are appreciably ionised at a pH >= 2 and 'y' equals 0, 1, 2 or 3).'

>  <Potential Duplicate>
false

>  <Assay ChEMBL ID>
CHEMBL3301362

>  <Assay Description>
ASTRAZENECA: Most basic pKa value (pKa B1) determined by absorption and potentiometric titration using standard methodology from Sirius Analytical. Experimental range Bases: >= 2.

>  <Assay Type>
P

>  <BAO Format ID>
BAO_0000100

>  <BAO Label>
small-molecule physicochemical format

>  <Target ChEMBL ID>
CHEMBL2362975

>  <Target Name>
No relevant target

>  <Target Type>
NO TARGET

>  <Document ChEMBL ID>
CHEMBL3301361

>  <Source ID>
27

>  <Source Description>
AstraZeneca Deposited Data

>  <Strongest basic pKa>
2.25

>  <deltapKa>
0.9516622305805429

>  <Strongest basic pKa_Taut>
2.25

>  <deltapKa_TAut>
0.9516622305805429

$$$$

  Mrv1920 03272013312D          

 14 16  0  0  0  0            999 V2000
    1.4289   -2.4750    0.0000 N   0  0  0  0  0  0  0  0  0  0  0  0
    1.4289   -1.6500    0.0000 C   0  0  0  0  0  0  0  0  0  0  0  0
    0.7145   -1.2375    0.0000 N   0  0  0  0  0  0  0  0  0  0  0  0
    0.7145   -0.4125    0.0000 C   0  0  0  0  0  0  0  0  0  0  0  0
    0.0000    0.0000    0.0000 C   0  0  0  0  0  0  0  0  0  0  0  0
   -0.8250    0.0000    0.0000 C   0  0  0  0  0  0  0  0  0  0  0  0
   -0.4125    0.7145    0.0000 C   0  0  0  0  0  0  0  0  0  0  0  0
    1.4289    0.0000    0.0000 C   0  0  0  0  0  0  0  0  0  0  0  0
    2.1434   -0.4125    0.0000 C   0  0  0  0  0  0  0  0  0  0  0  0
    2.8579    0.0000    0.0000 C   0  0  0  0  0  0  0  0  0  0  0  0
    3.5724   -0.4125    0.0000 C   0  0  0  0  0  0  0  0  0  0  0  0
    3.5724   -1.2375    0.0000 C   0  0  0  0  0  0  0  0  0  0  0  0
    2.8579   -1.6500    0.0000 C   0  0  0  0  0  0  0  0  0  0  0  0
    2.1434   -1.2375    0.0000 C   0  0  0  0  0  0  0  0  0  0  0  0
  1  2  1  0  0  0  0
  2  3  2  0  0  0  0
  3  4  1  0  0  0  0
  4  5  1  0  0  0  0
  5  6  1  0  0  0  0
  6  7  1  0  0  0  0
  5  7  1  0  0  0  0
  4  8  1  0  0  0  0
  8  9  1  0  0  0  0
  9 10  2  0  0  0  0
 10 11  1  0  0  0  0
 11 12  2  0  0  0  0
 12 13  1  0  0  0  0
 13 14  2  0  0  0  0
  9 14  1  0  0  0  0
  2 14  1  0  0  0  0
M  END
>  <StandardizerResult>
Tautomerize


>  <CdId>
30

>  <Mol Weight>
186.26

>  <Formula>
C12H14N2

>  <Molecule ChEMBL ID>
CHEMBL7931

>  <Molecule Max Phase>
0

>  <Molecular Weight>
186.26

>  <#RO5 Violations>
0

>  <AlogP>
1.73

>  <Compound Key>
1857

>  <Standard Type>
pKa_B1

>  <Standard Value>
11.0

>  <Comment>
'B1 Functional Group: 1-Isoquinolinamine, 3,4-dihydro-; Ionisation Formula: A0B1 (Functional Group: the part of the molecule the pKa refers to; Ionisation formula: AxBy where 'A' refers to acidic centers within the molecule that are appreciably ionised at a pH <= 11 and 'x' equals 0, 1 or 2; and 'B' refers to basic centers within the molecule that are appreciably ionised at a pH >= 2 and 'y' equals 0, 1, 2 or 3).'

>  <Potential Duplicate>
false

>  <Assay ChEMBL ID>
CHEMBL3301362

>  <Assay Description>
ASTRAZENECA: Most basic pKa value (pKa B1) determined by absorption and potentiometric titration using standard methodology from Sirius Analytical. Experimental range Bases: >= 2.

>  <Assay Type>
P

>  <BAO Format ID>
BAO_0000100

>  <BAO Label>
small-molecule physicochemical format

>  <Target ChEMBL ID>
CHEMBL2362975

>  <Target Name>
No relevant target

>  <Target Type>
NO TARGET

>  <Document ChEMBL ID>
CHEMBL3301361

>  <Source ID>
27

>  <Source Description>
AstraZeneca Deposited Data

>  <Strongest basic pKa>
10.03

>  <deltapKa>
0.9681237568062375

>  <Strongest basic pKa_Taut>
10.03

>  <deltapKa_TAut>
0.9681237568062375

$$$$

  Mrv1920 03272013312D          

 13 14  0  0  0  0            999 V2000
   -1.4289    0.0000    0.0000 N   0  0  0  0  0  0  0  0  0  0  0  0
   -0.7145   -0.4125    0.0000 C   0  0  0  0  0  0  0  0  0  0  0  0
   -0.7145   -1.2375    0.0000 C   0  0  0  0  0  0  0  0  0  0  0  0
    0.0000   -1.6500    0.0000 C   0  0  0  0  0  0  0  0  0  0  0  0
    0.7145   -1.2375    0.0000 C   0  0  0  0  0  0  0  0  0  0  0  0
    0.7145   -0.4125    0.0000 C   0  0  0  0  0  0  0  0  0  0  0  0
    1.4289    0.0000    0.0000 C   0  0  0  0  0  0  0  0  0  0  0  0
    2.1434   -0.4125    0.0000 C   0  0  0  0  0  0  0  0  0  0  0  0
    2.1434   -1.2375    0.0000 C   0  0  0  0  0  0  0  0  0  0  0  0
    2.8579   -1.6500    0.0000 O   0  0  0  0  0  0  0  0  0  0  0  0
    1.4289   -1.6500    0.0000 C   0  0  0  0  0  0  0  0  0  0  0  0
    1.4289   -2.4750    0.0000 O   0  0  0  0  0  0  0  0  0  0  0  0
    0.0000    0.0000    0.0000 C   0  0  0  0  0  0  0  0  0  0  0  0
  1  2  1  0  0  0  0
  2  3  1  0  0  0  0
  3  4  1  0  0  0  0
  4  5  1  0  0  0  0
  5  6  2  0  0  0  0
  6  7  1  0  0  0  0
  7  8  2  0  0  0  0
  8  9  1  0  0  0  0
  9 10  1  0  0  0  0
  9 11  2  0  0  0  0
  5 11  1  0  0  0  0
 11 12  1  0  0  0  0
  6 13  1  0  0  0  0
  2 13  1  0  0  0  0
M  END
>  <StandardizerResult>
Tautomerize


>  <CdId>
242

>  <Mol Weight>
179.22

>  <Formula>
C10H13NO2

>  <Molecule ChEMBL ID>
CHEMBL163912

>  <Molecule Max Phase>
0

>  <Molecular Weight>
179.22

>  <#RO5 Violations>
0

>  <AlogP>
0.91

>  <Compound Key>
1425

>  <Standard Type>
pKa_B1

>  <Standard Value>
10.5

>  <Comment>
'B1 Functional Group: Primary amine; Ionisation Formula: A1B1 (Functional Group: the part of the molecule the pKa refers to; Ionisation formula: AxBy where 'A' refers to acidic centers within the molecule that are appreciably ionised at a pH <= 11 and 'x' equals 0, 1 or 2; and 'B' refers to basic centers within the molecule that are appreciably ionised at a pH >= 2 and 'y' equals 0, 1, 2 or 3).'

>  <Potential Duplicate>
false

>  <Assay ChEMBL ID>
CHEMBL3301362

>  <Assay Description>
ASTRAZENECA: Most basic pKa value (pKa B1) determined by absorption and potentiometric titration using standard methodology from Sirius Analytical. Experimental range Bases: >= 2.

>  <Assay Type>
P

>  <BAO Format ID>
BAO_0000100

>  <BAO Label>
small-molecule physicochemical format

>  <Target ChEMBL ID>
CHEMBL2362975

>  <Target Name>
No relevant target

>  <Target Type>
NO TARGET

>  <Document ChEMBL ID>
CHEMBL3301361

>  <Source ID>
27

>  <Source Description>
AstraZeneca Deposited Data

>  <Strongest basic pKa>
9.5

>  <deltapKa>
1.0038763714248837

>  <Strongest basic pKa_Taut>
9.5

>  <deltapKa_TAut>
1.0038763714248837

$$$$

  Mrv1920 03272013312D          

 13 14  0  0  0  0            999 V2000
    0.0000   -1.6500    0.0000 N   0  0  0  0  0  0  0  0  0  0  0  0
    0.7145   -1.2375    0.0000 C   0  0  0  0  0  0  0  0  0  0  0  0
    0.7145   -0.4125    0.0000 C   0  0  0  0  0  0  0  0  0  0  0  0
    1.4289    0.0000    0.0000 C   0  0  0  0  0  0  0  0  0  0  0  0
    2.1434   -0.4125    0.0000 C   0  0  0  0  0  0  0  0  0  0  0  0
    2.8579    0.0000    0.0000 C   0  0  0  0  0  0  0  0  0  0  0  0
    3.5724   -0.4125    0.0000 C   0  0  0  0  0  0  0  0  0  0  0  0
    4.2868    0.0000    0.0000 O   0  0  0  0  0  0  0  0  0  0  0  0
    3.5724   -1.2375    0.0000 C   0  0  0  0  0  0  0  0  0  0  0  0
    4.2868   -1.6500    0.0000 O   0  0  0  0  0  0  0  0  0  0  0  0
    2.8579   -1.6500    0.0000 C   0  0  0  0  0  0  0  0  0  0  0  0
    2.1434   -1.2375    0.0000 C   0  0  0  0  0  0  0  0  0  0  0  0
    1.4289   -1.6500    0.0000 C   0  0  0  0  0  0  0  0  0  0  0  0
  1  2  1  0  0  0  0
  2  3  1  0  0  0  0
  3  4  1  0  0  0  0
  4  5  1  0  0  0  0
  5  6  2  0  0  0  0
  6  7  1  0  0  0  0
  7  8  1  0  0  0  0
  7  9  2  0  0  0  0
  9 10  1  0  0  0  0
  9 11  1  0  0  0  0
 11 12  2  0  0  0  0
  5 12  1  0  0  0  0
 12 13  1  0  0  0  0
  2 13  1  0  0  0  0
M  END
>  <StandardizerResult>
Tautomerize


>  <CdId>
143

>  <Mol Weight>
179.22

>  <Formula>
C10H13NO2

>  <Molecule ChEMBL ID>
CHEMBL26736

>  <Molecule Max Phase>
0

>  <Molecular Weight>
179.22

>  <#RO5 Violations>
0

>  <AlogP>
0.91

>  <Compound Key>
471

>  <Standard Type>
pKa_B1

>  <Standard Value>
10.5

>  <Comment>
'B1 Functional Group: Primary amine; Ionisation Formula: A1B1 (Functional Group: the part of the molecule the pKa refers to; Ionisation formula: AxBy where 'A' refers to acidic centers within the molecule that are appreciably ionised at a pH <= 11 and 'x' equals 0, 1 or 2; and 'B' refers to basic centers within the molecule that are appreciably ionised at a pH >= 2 and 'y' equals 0, 1, 2 or 3).'

>  <Potential Duplicate>
false

>  <Assay ChEMBL ID>
CHEMBL3301362

>  <Assay Description>
ASTRAZENECA: Most basic pKa value (pKa B1) determined by absorption and potentiometric titration using standard methodology from Sirius Analytical. Experimental range Bases: >= 2.

>  <Assay Type>
P

>  <BAO Format ID>
BAO_0000100

>  <BAO Label>
small-molecule physicochemical format

>  <Target ChEMBL ID>
CHEMBL2362975

>  <Target Name>
No relevant target

>  <Target Type>
NO TARGET

>  <Document ChEMBL ID>
CHEMBL3301361

>  <Source ID>
27

>  <Source Description>
AstraZeneca Deposited Data

>  <Strongest basic pKa>
9.48

>  <deltapKa>
1.0247201500275622

>  <Strongest basic pKa_Taut>
9.48

>  <deltapKa_TAut>
1.0247201500275622

$$$$

  Mrv1920 03272013312D          

 11 12  0  0  0  0            999 V2000
    0.0000   -1.6500    0.0000 N   0  0  0  0  0  0  0  0  0  0  0  0
    0.7145   -1.2375    0.0000 C   0  0  0  0  0  0  0  0  0  0  0  0
    0.7145   -0.4125    0.0000 C   0  0  0  0  0  0  0  0  0  0  0  0
    1.4289    0.0000    0.0000 C   0  0  0  0  0  0  0  0  0  0  0  0
    2.1434   -0.4125    0.0000 C   0  0  0  0  0  0  0  0  0  0  0  0
    2.8579    0.0000    0.0000 C   0  0  0  0  0  0  0  0  0  0  0  0
    3.5724   -0.4125    0.0000 C   0  0  0  0  0  0  0  0  0  0  0  0
    3.5724   -1.2375    0.0000 C   0  0  0  0  0  0  0  0  0  0  0  0
    2.8579   -1.6500    0.0000 C   0  0  0  0  0  0  0  0  0  0  0  0
    2.1434   -1.2375    0.0000 C   0  0  0  0  0  0  0  0  0  0  0  0
    1.4289   -1.6500    0.0000 N   0  0  0  0  0  0  0  0  0  0  0  0
  1  2  1  0  0  0  0
  2  3  1  0  0  0  0
  3  4  2  0  0  0  0
  4  5  1  0  0  0  0
  5  6  2  0  0  0  0
  6  7  1  0  0  0  0
  7  8  2  0  0  0  0
  8  9  1  0  0  0  0
  9 10  2  0  0  0  0
  5 10  1  0  0  0  0
 10 11  1  0  0  0  0
  2 11  2  0  0  0  0
M  END
>  <StandardizerResult>
Tautomerize


>  <CdId>
193

>  <Mol Weight>
144.18

>  <Formula>
C9H8N2

>  <Molecule ChEMBL ID>
CHEMBL61236

>  <Molecule Max Phase>
0

>  <Molecular Weight>
144.18

>  <#RO5 Violations>
0

>  <AlogP>
1.82

>  <Compound Key>
202

>  <Standard Type>
pKa_B1

>  <Standard Value>
7.2

>  <Comment>
'B1 Functional Group: 2-Quinolinamine; Ionisation Formula: A0B1 (Functional Group: the part of the molecule the pKa refers to; Ionisation formula: AxBy where 'A' refers to acidic centers within the molecule that are appreciably ionised at a pH <= 11 and 'x' equals 0, 1 or 2; and 'B' refers to basic centers within the molecule that are appreciably ionised at a pH >= 2 and 'y' equals 0, 1, 2 or 3).'

>  <Potential Duplicate>
false

>  <Assay ChEMBL ID>
CHEMBL3301362

>  <Assay Description>
ASTRAZENECA: Most basic pKa value (pKa B1) determined by absorption and potentiometric titration using standard methodology from Sirius Analytical. Experimental range Bases: >= 2.

>  <Assay Type>
P

>  <BAO Format ID>
BAO_0000100

>  <BAO Label>
small-molecule physicochemical format

>  <Target ChEMBL ID>
CHEMBL2362975

>  <Target Name>
No relevant target

>  <Target Type>
NO TARGET

>  <Document ChEMBL ID>
CHEMBL3301361

>  <Source ID>
27

>  <Source Description>
AstraZeneca Deposited Data

>  <Strongest basic pKa>
6.16

>  <deltapKa>
1.0401541635467684

>  <Strongest basic pKa_Taut>
6.16

>  <deltapKa_TAut>
1.0401541635467684

$$$$

  Mrv1920 03272013312D          

 29 31  0  0  1  0            999 V2000
    2.8579    0.8250    0.0000 C   0  0  0  0  0  0  0  0  0  0  0  0
    2.8579    0.0000    0.0000 C   0  0  1  0  0  0  0  0  0  0  0  0
    2.1434   -0.4125    0.0000 C   0  0  0  0  0  0  0  0  0  0  0  0
    2.1434   -1.2375    0.0000 N   0  0  0  0  0  0  0  0  0  0  0  0
    1.4289   -1.6500    0.0000 C   0  0  0  0  0  0  0  0  0  0  0  0
    1.4289   -2.4750    0.0000 C   0  0  0  0  0  0  0  0  0  0  0  0
    2.1434   -2.8875    0.0000 C   0  0  0  0  0  0  0  0  0  0  0  0
    2.1434   -3.7125    0.0000 C   0  0  0  0  0  0  0  0  0  0  0  0
    2.8579   -4.1250    0.0000 Cl  0  0  0  0  0  0  0  0  0  0  0  0
    1.4289   -4.1250    0.0000 C   0  0  0  0  0  0  0  0  0  0  0  0
    0.7145   -3.7125    0.0000 C   0  0  0  0  0  0  0  0  0  0  0  0
    0.7145   -2.8875    0.0000 C   0  0  0  0  0  0  0  0  0  0  0  0
    0.0000   -2.4750    0.0000 O   0  0  0  0  0  0  0  0  0  0  0  0
   -0.7145   -2.8875    0.0000 C   0  0  0  0  0  0  0  0  0  0  0  0
   -1.4289   -2.4750    0.0000 C   0  0  0  0  0  0  0  0  0  0  0  0
   -2.1434   -2.8875    0.0000 O   0  0  0  0  0  0  0  0  0  0  0  0
   -1.4289   -1.6500    0.0000 O   0  0  0  0  0  0  0  0  0  0  0  0
    2.8579   -1.6500    0.0000 C   0  0  0  0  0  0  0  0  0  0  0  0
    3.5724   -1.2375    0.0000 C   0  0  0  0  0  0  0  0  0  0  0  0
    3.5724   -0.4125    0.0000 N   0  0  0  0  0  0  0  0  0  0  0  0
    4.2868    0.0000    0.0000 C   0  0  0  0  0  0  0  0  0  0  0  0
    4.2868    0.8250    0.0000 O   0  0  0  0  0  0  0  0  0  0  0  0
    5.0013   -0.4125    0.0000 C   0  0  0  0  0  0  0  0  0  0  0  0
    5.0013   -1.2375    0.0000 C   0  0  0  0  0  0  0  0  0  0  0  0
    5.7158   -1.6500    0.0000 C   0  0  0  0  0  0  0  0  0  0  0  0
    5.7158   -2.4750    0.0000 C   0  0  0  0  0  0  0  0  0  0  0  0
    5.0013   -2.8875    0.0000 C   0  0  0  0  0  0  0  0  0  0  0  0
    4.2868   -2.4750    0.0000 C   0  0  0  0  0  0  0  0  0  0  0  0
    4.2868   -1.6500    0.0000 C   0  0  0  0  0  0  0  0  0  0  0  0
  2  1  1  6  0  0  0
  2  3  1  0  0  0  0
  3  4  1  0  0  0  0
  4  5  1  0  0  0  0
  5  6  1  0  0  0  0
  6  7  2  0  0  0  0
  7  8  1  0  0  0  0
  8  9  1  0  0  0  0
  8 10  2  0  0  0  0
 10 11  1  0  0  0  0
 11 12  2  0  0  0  0
  6 12  1  0  0  0  0
 12 13  1  0  0  0  0
 13 14  1  0  0  0  0
 14 15  1  0  0  0  0
 15 16  2  0  0  0  0
 15 17  1  0  0  0  0
  4 18  1  0  0  0  0
 18 19  1  0  0  0  0
 19 20  1  0  0  0  0
  2 20  1  0  0  0  0
 20 21  1  0  0  0  0
 21 22  2  0  0  0  0
 21 23  1  0  0  0  0
 23 24  1  0  0  0  0
 24 25  2  0  0  0  0
 25 26  1  0  0  0  0
 26 27  2  0  0  0  0
 27 28  1  0  0  0  0
 28 29  2  0  0  0  0
 24 29  1  0  0  0  0
M  END
>  <StandardizerResult>
Tautomerize


>  <CdId>
233

>  <Mol Weight>
416.9

>  <Formula>
C22H25ClN2O4

>  <Molecule ChEMBL ID>
CHEMBL1689126

>  <Molecule Max Phase>
0

>  <Molecular Weight>
416.91

>  <#RO5 Violations>
0

>  <AlogP>
3.08

>  <Compound Key>
3463

>  <Standard Type>
pKa_B1

>  <Standard Value>
7.0

>  <Comment>
'B1 Functional Group: Piperazine; Ionisation Formula: A1B1 (Functional Group: the part of the molecule the pKa refers to; Ionisation formula: AxBy where 'A' refers to acidic centers within the molecule that are appreciably ionised at a pH <= 11 and 'x' equals 0, 1 or 2; and 'B' refers to basic centers within the molecule that are appreciably ionised at a pH >= 2 and 'y' equals 0, 1, 2 or 3).'

>  <Potential Duplicate>
false

>  <Assay ChEMBL ID>
CHEMBL3301362

>  <Assay Description>
ASTRAZENECA: Most basic pKa value (pKa B1) determined by absorption and potentiometric titration using standard methodology from Sirius Analytical. Experimental range Bases: >= 2.

>  <Assay Type>
P

>  <BAO Format ID>
BAO_0000100

>  <BAO Label>
small-molecule physicochemical format

>  <Target ChEMBL ID>
CHEMBL2362975

>  <Target Name>
No relevant target

>  <Target Type>
NO TARGET

>  <Document ChEMBL ID>
CHEMBL3301361

>  <Source ID>
27

>  <Source Description>
AstraZeneca Deposited Data

>  <Strongest basic pKa>
5.94

>  <deltapKa>
1.0570442095103942

>  <Strongest basic pKa_Taut>
5.94

>  <deltapKa_TAut>
1.0570442095103942

$$$$

  Mrv1920 03272013312D          

 27 28  0  0  1  0            999 V2000
    0.7145   -4.5375    0.0000 C   0  0  0  0  0  0  0  0  0  0  0  0
    1.4289   -4.1250    0.0000 C   0  0  0  0  0  0  0  0  0  0  0  0
    2.1434   -4.5375    0.0000 O   0  0  0  0  0  0  0  0  0  0  0  0
    2.1434   -5.3625    0.0000 C   0  0  0  0  0  0  0  0  0  0  0  0
    1.4289   -5.7750    0.0000 O   0  0  0  0  0  0  0  0  0  0  0  0
    2.8579   -5.7750    0.0000 C   0  0  2  0  0  0  0  0  0  0  0  0
    2.8579   -6.6000    0.0000 C   0  0  0  0  0  0  0  0  0  0  0  0
    2.1434   -7.0125    0.0000 C   0  0  0  0  0  0  0  0  0  0  0  0
    2.1434   -7.8375    0.0000 C   0  0  0  0  0  0  0  0  0  0  0  0
    2.8579   -8.2500    0.0000 C   0  0  0  0  0  0  0  0  0  0  0  0
    2.8579   -9.0750    0.0000 C   0  0  0  0  0  0  0  0  0  0  0  0
    2.1434   -9.4875    0.0000 C   0  0  0  0  0  0  0  0  0  0  0  0
    1.4289   -9.0750    0.0000 C   0  0  0  0  0  0  0  0  0  0  0  0
    1.4289   -8.2500    0.0000 C   0  0  0  0  0  0  0  0  0  0  0  0
    3.5724   -5.3625    0.0000 N   0  0  0  0  0  0  0  0  0  0  0  0
    3.5724   -4.5375    0.0000 C   0  0  1  0  0  0  0  0  0  0  0  0
    2.8579   -4.1250    0.0000 C   0  0  0  0  0  0  0  0  0  0  0  0
    4.2868   -4.1250    0.0000 C   0  0  0  0  0  0  0  0  0  0  0  0
    4.2868   -3.3000    0.0000 O   0  0  0  0  0  0  0  0  0  0  0  0
    5.0013   -4.5375    0.0000 N   0  0  0  0  0  0  0  0  0  0  0  0
    5.0875   -5.3580    0.0000 C   0  0  0  0  0  0  0  0  0  0  0  0
    5.8945   -5.5295    0.0000 C   0  0  0  0  0  0  0  0  0  0  0  0
    6.3070   -4.8150    0.0000 C   0  0  0  0  0  0  0  0  0  0  0  0
    5.7550   -4.2019    0.0000 C   0  0  1  0  0  0  0  0  0  0  0  0
    5.9265   -3.3950    0.0000 C   0  0  0  0  0  0  0  0  0  0  0  0
    5.3134   -2.8429    0.0000 O   0  0  0  0  0  0  0  0  0  0  0  0
    6.7111   -3.1400    0.0000 O   0  0  0  0  0  0  0  0  0  0  0  0
  1  2  1  0  0  0  0
  2  3  1  0  0  0  0
  3  4  1  0  0  0  0
  4  5  2  0  0  0  0
  6  4  1  0  0  0  0
  6  7  1  0  0  0  0
  7  8  1  0  0  0  0
  8  9  1  0  0  0  0
  9 10  2  0  0  0  0
 10 11  1  0  0  0  0
 11 12  2  0  0  0  0
 12 13  1  0  0  0  0
 13 14  2  0  0  0  0
  9 14  1  0  0  0  0
  6 15  1  1  0  0  0
 16 15  1  0  0  0  0
 16 17  1  1  0  0  0
 16 18  1  0  0  0  0
 18 19  2  0  0  0  0
 18 20  1  0  0  0  0
 20 21  1  0  0  0  0
 21 22  1  0  0  0  0
 22 23  1  0  0  0  0
 24 23  1  0  0  0  0
 24 20  1  0  0  0  0
 24 25  1  6  0  0  0
 25 26  2  0  0  0  0
 25 27  1  0  0  0  0
M  END
>  <StandardizerResult>
Tautomerize


>  <CdId>
131

>  <Mol Weight>
376.45

>  <Formula>
C20H28N2O5

>  <Molecule ChEMBL ID>
CHEMBL578

>  <Molecule Name>
ENALAPRIL

>  <Molecule Max Phase>
4

>  <Molecular Weight>
376.45

>  <#RO5 Violations>
0

>  <AlogP>
1.6

>  <Compound Key>
713

>  <Standard Type>
pKa_B1

>  <Standard Value>
6.4

>  <Comment>
'B1 Functional Group: Secondary amine; Ionisation Formula: A1B1 (Functional Group: the part of the molecule the pKa refers to; Ionisation formula: AxBy where 'A' refers to acidic centers within the molecule that are appreciably ionised at a pH <= 11 and 'x' equals 0, 1 or 2; and 'B' refers to basic centers within the molecule that are appreciably ionised at a pH >= 2 and 'y' equals 0, 1, 2 or 3).'

>  <Potential Duplicate>
false

>  <Assay ChEMBL ID>
CHEMBL3301362

>  <Assay Description>
ASTRAZENECA: Most basic pKa value (pKa B1) determined by absorption and potentiometric titration using standard methodology from Sirius Analytical. Experimental range Bases: >= 2.

>  <Assay Type>
P

>  <BAO Format ID>
BAO_0000100

>  <BAO Label>
small-molecule physicochemical format

>  <Target ChEMBL ID>
CHEMBL2362975

>  <Target Name>
No relevant target

>  <Target Type>
NO TARGET

>  <Document ChEMBL ID>
CHEMBL3301361

>  <Source ID>
27

>  <Source Description>
AstraZeneca Deposited Data

>  <Strongest basic pKa>
5.2

>  <deltapKa>
1.1986592281405173

>  <Strongest basic pKa_Taut>
5.2

>  <deltapKa_TAut>
1.1986592281405173

$$$$

  Mrv1920 03272013312D          

 15 16  0  0  0  0            999 V2000
   -1.4289    0.8250    0.0000 C   0  0  0  0  0  0  0  0  0  0  0  0
   -1.4289    0.0000    0.0000 N   0  0  0  0  0  0  0  0  0  0  0  0
   -2.1434   -0.4125    0.0000 C   0  0  0  0  0  0  0  0  0  0  0  0
   -0.7145   -0.4125    0.0000 C   0  0  0  0  0  0  0  0  0  0  0  0
   -0.7145   -1.2375    0.0000 C   0  0  0  0  0  0  0  0  0  0  0  0
    0.0000   -1.6500    0.0000 C   0  0  0  0  0  0  0  0  0  0  0  0
    0.7145   -1.2375    0.0000 C   0  0  0  0  0  0  0  0  0  0  0  0
    0.7145   -0.4125    0.0000 C   0  0  0  0  0  0  0  0  0  0  0  0
    1.4289    0.0000    0.0000 C   0  0  0  0  0  0  0  0  0  0  0  0
    2.1434   -0.4125    0.0000 C   0  0  0  0  0  0  0  0  0  0  0  0
    2.1434   -1.2375    0.0000 C   0  0  0  0  0  0  0  0  0  0  0  0
    2.8579   -1.6500    0.0000 O   0  0  0  0  0  0  0  0  0  0  0  0
    1.4289   -1.6500    0.0000 C   0  0  0  0  0  0  0  0  0  0  0  0
    1.4289   -2.4750    0.0000 O   0  0  0  0  0  0  0  0  0  0  0  0
    0.0000    0.0000    0.0000 C   0  0  0  0  0  0  0  0  0  0  0  0
  1  2  1  0  0  0  0
  2  3  1  0  0  0  0
  2  4  1  0  0  0  0
  4  5  1  0  0  0  0
  5  6  1  0  0  0  0
  6  7  1  0  0  0  0
  7  8  2  0  0  0  0
  8  9  1  0  0  0  0
  9 10  2  0  0  0  0
 10 11  1  0  0  0  0
 11 12  1  0  0  0  0
 11 13  2  0  0  0  0
  7 13  1  0  0  0  0
 13 14  1  0  0  0  0
  8 15  1  0  0  0  0
  4 15  1  0  0  0  0
M  END
>  <StandardizerResult>
Tautomerize


>  <CdId>
184

>  <Mol Weight>
207.27

>  <Formula>
C12H17NO2

>  <Molecule ChEMBL ID>
CHEMBL146419

>  <Molecule Max Phase>
0

>  <Molecular Weight>
207.27

>  <#RO5 Violations>
0

>  <AlogP>
1.52

>  <Compound Key>
1434

>  <Standard Type>
pKa_B1

>  <Standard Value>
10.5

>  <Comment>
'B1 Functional Group: Tertiary amine; Ionisation Formula: A1B1 (Functional Group: the part of the molecule the pKa refers to; Ionisation formula: AxBy where 'A' refers to acidic centers within the molecule that are appreciably ionised at a pH <= 11 and 'x' equals 0, 1 or 2; and 'B' refers to basic centers within the molecule that are appreciably ionised at a pH >= 2 and 'y' equals 0, 1, 2 or 3).'

>  <Potential Duplicate>
false

>  <Assay ChEMBL ID>
CHEMBL3301362

>  <Assay Description>
ASTRAZENECA: Most basic pKa value (pKa B1) determined by absorption and potentiometric titration using standard methodology from Sirius Analytical. Experimental range Bases: >= 2.

>  <Assay Type>
P

>  <BAO Format ID>
BAO_0000100

>  <BAO Label>
small-molecule physicochemical format

>  <Target ChEMBL ID>
CHEMBL2362975

>  <Target Name>
No relevant target

>  <Target Type>
NO TARGET

>  <Document ChEMBL ID>
CHEMBL3301361

>  <Source ID>
27

>  <Source Description>
AstraZeneca Deposited Data

>  <Strongest basic pKa>
9.26

>  <deltapKa>
1.243726312574731

>  <Strongest basic pKa_Taut>
9.26

>  <deltapKa_TAut>
1.243726312574731

$$$$

  Mrv1920 03272013312D          

 29 31  0  0  0  0            999 V2000
    4.2868   -1.6500    0.0000 O   0  0  0  0  0  0  0  0  0  0  0  0
    3.5724   -1.2375    0.0000 C   0  0  0  0  0  0  0  0  0  0  0  0
    2.8579   -1.6500    0.0000 N   0  0  0  0  0  0  0  0  0  0  0  0
    2.8579   -2.4750    0.0000 C   0  0  0  0  0  0  0  0  0  0  0  0
    3.5724   -2.8875    0.0000 C   0  0  0  0  0  0  0  0  0  0  0  0
    3.5724   -3.7125    0.0000 C   0  0  0  0  0  0  0  0  0  0  0  0
    2.8579   -4.1250    0.0000 C   0  0  0  0  0  0  0  0  0  0  0  0
    2.8579   -4.9500    0.0000 Cl  0  0  0  0  0  0  0  0  0  0  0  0
    2.1434   -3.7125    0.0000 C   0  0  0  0  0  0  0  0  0  0  0  0
    1.4289   -4.1250    0.0000 S   0  0  0  0  0  0  0  0  0  0  0  0
    1.8414   -4.8395    0.0000 O   0  0  0  0  0  0  0  0  0  0  0  0
    1.0164   -3.4105    0.0000 O   0  0  0  0  0  0  0  0  0  0  0  0
    0.7145   -4.5375    0.0000 N   0  0  0  0  0  0  0  0  0  0  0  0
    0.7145   -5.3625    0.0000 C   0  0  0  0  0  0  0  0  0  0  0  0
    0.0000   -5.7750    0.0000 C   0  0  0  0  0  0  0  0  0  0  0  0
   -0.7145   -5.3625    0.0000 N   0  0  0  0  0  0  0  0  0  0  0  0
   -0.7145   -4.5375    0.0000 C   0  0  0  0  0  0  0  0  0  0  0  0
    0.0000   -4.1250    0.0000 C   0  0  0  0  0  0  0  0  0  0  0  0
    2.1434   -2.8875    0.0000 C   0  0  0  0  0  0  0  0  0  0  0  0
    1.4289   -2.4750    0.0000 O   0  0  0  0  0  0  0  0  0  0  0  0
    3.5724   -0.4125    0.0000 N   0  0  0  0  0  0  0  0  0  0  0  0
    4.2868    0.0000    0.0000 C   0  0  0  0  0  0  0  0  0  0  0  0
    4.2868    0.8250    0.0000 C   0  0  0  0  0  0  0  0  0  0  0  0
    5.0013    1.2375    0.0000 C   0  0  0  0  0  0  0  0  0  0  0  0
    5.7158    0.8250    0.0000 C   0  0  0  0  0  0  0  0  0  0  0  0
    5.7158    0.0000    0.0000 C   0  0  0  0  0  0  0  0  0  0  0  0
    6.4302   -0.4125    0.0000 F   0  0  0  0  0  0  0  0  0  0  0  0
    5.0013   -0.4125    0.0000 C   0  0  0  0  0  0  0  0  0  0  0  0
    5.0013   -1.2375    0.0000 Cl  0  0  0  0  0  0  0  0  0  0  0  0
  1  2  2  0  0  0  0
  2  3  1  0  0  0  0
  3  4  1  0  0  0  0
  4  5  2  0  0  0  0
  5  6  1  0  0  0  0
  6  7  2  0  0  0  0
  7  8  1  0  0  0  0
  7  9  1  0  0  0  0
  9 10  1  0  0  0  0
 10 11  2  0  0  0  0
 10 12  2  0  0  0  0
 10 13  1  0  0  0  0
 13 14  1  0  0  0  0
 14 15  1  0  0  0  0
 15 16  1  0  0  0  0
 16 17  1  0  0  0  0
 17 18  1  0  0  0  0
 13 18  1  0  0  0  0
  9 19  2  0  0  0  0
  4 19  1  0  0  0  0
 19 20  1  0  0  0  0
  2 21  1  0  0  0  0
 21 22  1  0  0  0  0
 22 23  2  0  0  0  0
 23 24  1  0  0  0  0
 24 25  2  0  0  0  0
 25 26  1  0  0  0  0
 26 27  1  0  0  0  0
 26 28  2  0  0  0  0
 22 28  1  0  0  0  0
 28 29  1  0  0  0  0
M  END
>  <StandardizerResult>
Tautomerize


>  <CdId>
168

>  <Mol Weight>
463.31

>  <Formula>
C17H17Cl2FN4O4S

>  <Molecule ChEMBL ID>
CHEMBL2178579

>  <Molecule Name>
ELUBRIXIN

>  <Molecule Max Phase>
2

>  <Molecular Weight>
463.32

>  <#RO5 Violations>
0

>  <AlogP>
3.08

>  <Compound Key>
3413

>  <Standard Type>
pKa_B1

>  <Standard Value>
8.5

>  <Comment>
'B1 Functional Group: Piperazine; Ionisation Formula: A1B1 (Functional Group: the part of the molecule the pKa refers to; Ionisation formula: AxBy where 'A' refers to acidic centers within the molecule that are appreciably ionised at a pH <= 11 and 'x' equals 0, 1 or 2; and 'B' refers to basic centers within the molecule that are appreciably ionised at a pH >= 2 and 'y' equals 0, 1, 2 or 3).'

>  <Potential Duplicate>
false

>  <Assay ChEMBL ID>
CHEMBL3301362

>  <Assay Description>
ASTRAZENECA: Most basic pKa value (pKa B1) determined by absorption and potentiometric titration using standard methodology from Sirius Analytical. Experimental range Bases: >= 2.

>  <Assay Type>
P

>  <BAO Format ID>
BAO_0000100

>  <BAO Label>
small-molecule physicochemical format

>  <Target ChEMBL ID>
CHEMBL2362975

>  <Target Name>
No relevant target

>  <Target Type>
NO TARGET

>  <Document ChEMBL ID>
CHEMBL3301361

>  <Source ID>
27

>  <Source Description>
AstraZeneca Deposited Data

>  <Strongest basic pKa>
7.18

>  <deltapKa>
1.3180010384068837

>  <Strongest basic pKa_Taut>
7.18

>  <deltapKa_TAut>
1.3180010384068837

$$$$

  Mrv1920 03272013312D          

 23 26  0  0  0  0            999 V2000
    2.0435    1.6426    0.0000 C   0  0  0  0  0  0  0  0  0  0  0  0
    2.1298    0.8221    0.0000 C   0  0  0  0  0  0  0  0  0  0  0  0
    2.8442    0.4096    0.0000 N   0  0  0  0  0  0  0  0  0  0  0  0
    2.6727   -0.3974    0.0000 C   0  0  0  0  0  0  0  0  0  0  0  0
    3.4932   -0.4836    0.0000 C   0  0  0  0  0  0  0  0  0  0  0  0
    3.9781    0.1838    0.0000 C   0  0  0  0  0  0  0  0  0  0  0  0
    4.7986    0.0976    0.0000 C   0  0  0  0  0  0  0  0  0  0  0  0
    5.1341   -0.6561    0.0000 C   0  0  0  0  0  0  0  0  0  0  0  0
    4.6492   -1.3235    0.0000 C   0  0  0  0  0  0  0  0  0  0  0  0
    4.9848   -2.0772    0.0000 C   0  0  0  0  0  0  0  0  0  0  0  0
    5.8053   -2.1634    0.0000 C   0  0  0  0  0  0  0  0  0  0  0  0
    6.1408   -2.9171    0.0000 N   0  0  0  0  0  0  0  0  0  0  0  0
    5.6559   -3.5845    0.0000 C   0  0  0  0  0  0  0  0  0  0  0  0
    4.8354   -3.4983    0.0000 C   0  0  0  0  0  0  0  0  0  0  0  0
    4.3505   -4.1658    0.0000 Cl  0  0  0  0  0  0  0  0  0  0  0  0
    4.4999   -2.7446    0.0000 C   0  0  0  0  0  0  0  0  0  0  0  0
    3.8287   -1.2373    0.0000 C   0  0  0  0  0  0  0  0  0  0  0  0
    2.6727   -1.2224    0.0000 C   0  0  0  0  0  0  0  0  0  0  0  0
    3.0852   -1.9368    0.0000 C   0  0  0  0  0  0  0  0  0  0  0  0
    2.2602   -1.9368    0.0000 C   0  0  0  0  0  0  0  0  0  0  0  0
    1.8522   -0.4836    0.0000 N   0  0  0  0  0  0  0  0  0  0  0  0
    1.5167    0.2701    0.0000 C   0  0  0  0  0  0  0  0  0  0  0  0
    0.7097    0.4416    0.0000 N   0  0  0  0  0  0  0  0  0  0  0  0
  1  2  1  0  0  0  0
  2  3  2  0  0  0  0
  3  4  1  0  0  0  0
  4  5  1  0  0  0  0
  5  6  2  0  0  0  0
  6  7  1  0  0  0  0
  7  8  2  0  0  0  0
  8  9  1  0  0  0  0
  9 10  1  0  0  0  0
 10 11  2  0  0  0  0
 11 12  1  0  0  0  0
 12 13  2  0  0  0  0
 13 14  1  0  0  0  0
 14 15  1  0  0  0  0
 14 16  2  0  0  0  0
 10 16  1  0  0  0  0
  9 17  2  0  0  0  0
  5 17  1  0  0  0  0
  4 18  1  0  0  0  0
 18 19  1  0  0  0  0
 19 20  1  0  0  0  0
 18 20  1  0  0  0  0
  4 21  1  0  0  0  0
 21 22  2  0  0  0  0
  2 22  1  0  0  0  0
 22 23  1  0  0  0  0
M  END
>  <StandardizerResult>
Tautomerize


>  <CdId>
227

>  <Mol Weight>
324.81

>  <Formula>
C18H17ClN4

>  <Molecule ChEMBL ID>
CHEMBL2180033

>  <Molecule Max Phase>
0

>  <Molecular Weight>
324.82

>  <#RO5 Violations>
0

>  <AlogP>
3.8

>  <Compound Key>
5411

>  <Standard Type>
pKa_B1

>  <Standard Value>
6.04

>  <Comment>
'B1 Functional Group: 2H-imidazol-4-amine, 5-methyl-; Ionisation Formula: A0B2 (Functional Group: the part of the molecule the pKa refers to; Ionisation formula: AxBy where 'A' refers to acidic centers within the molecule that are appreciably ionised at a pH <= 11 and 'x' equals 0, 1 or 2; and 'B' refers to basic centers within the molecule that are appreciably ionised at a pH >= 2 and 'y' equals 0, 1, 2 or 3).'

>  <Potential Duplicate>
false

>  <Assay ChEMBL ID>
CHEMBL3301362

>  <Assay Description>
ASTRAZENECA: Most basic pKa value (pKa B1) determined by absorption and potentiometric titration using standard methodology from Sirius Analytical. Experimental range Bases: >= 2.

>  <Assay Type>
P

>  <BAO Format ID>
BAO_0000100

>  <BAO Label>
small-molecule physicochemical format

>  <Target ChEMBL ID>
CHEMBL2362975

>  <Target Name>
No relevant target

>  <Target Type>
NO TARGET

>  <Document ChEMBL ID>
CHEMBL3301361

>  <Source ID>
27

>  <Source Description>
AstraZeneca Deposited Data

>  <Strongest basic pKa>
4.7

>  <deltapKa>
1.3427837064935675

>  <Strongest basic pKa_Taut>
4.7

>  <deltapKa_TAut>
1.3427837064935675

$$$$

  Mrv1920 03272013312D          

 15 15  0  0  0  0            999 V2000
   -2.1434   -1.2375    0.0000 C   0  0  0  0  0  0  0  0  0  0  0  0
   -1.4289   -1.6500    0.0000 C   0  0  0  0  0  0  0  0  0  0  0  0
   -0.7145   -1.2375    0.0000 N   0  0  0  0  0  0  0  0  0  0  0  0
   -0.7145   -0.4125    0.0000 C   0  0  0  0  0  0  0  0  0  0  0  0
   -1.4289    0.0000    0.0000 C   0  0  0  0  0  0  0  0  0  0  0  0
    0.0000   -1.6500    0.0000 C   0  0  0  0  0  0  0  0  0  0  0  0
    0.0000   -2.4750    0.0000 C   0  0  0  0  0  0  0  0  0  0  0  0
    0.7145   -1.2375    0.0000 C   0  0  0  0  0  0  0  0  0  0  0  0
    1.4289   -1.6500    0.0000 O   0  0  0  0  0  0  0  0  0  0  0  0
    0.7145   -0.4125    0.0000 C   0  0  0  0  0  0  0  0  0  0  0  0
    0.0000    0.0000    0.0000 C   0  0  0  0  0  0  0  0  0  0  0  0
    0.0000    0.8250    0.0000 C   0  0  0  0  0  0  0  0  0  0  0  0
    0.7145    1.2375    0.0000 C   0  0  0  0  0  0  0  0  0  0  0  0
    1.4289    0.8250    0.0000 C   0  0  0  0  0  0  0  0  0  0  0  0
    1.4289    0.0000    0.0000 C   0  0  0  0  0  0  0  0  0  0  0  0
  1  2  1  0  0  0  0
  2  3  1  0  0  0  0
  3  4  1  0  0  0  0
  4  5  1  0  0  0  0
  3  6  1  0  0  0  0
  6  7  1  0  0  0  0
  6  8  1  0  0  0  0
  8  9  2  0  0  0  0
  8 10  1  0  0  0  0
 10 11  2  0  0  0  0
 11 12  1  0  0  0  0
 12 13  2  0  0  0  0
 13 14  1  0  0  0  0
 14 15  2  0  0  0  0
 10 15  1  0  0  0  0
M  END
>  <StandardizerResult>
Tautomerize


>  <CdId>
114

>  <Mol Weight>
205.3

>  <Formula>
C13H19NO

>  <Molecule ChEMBL ID>
CHEMBL1194666

>  <Molecule Name>
DIETHYLPROPION

>  <Molecule Max Phase>
4

>  <Molecular Weight>
205.3

>  <#RO5 Violations>
0

>  <AlogP>
2.6

>  <Compound Key>
343

>  <Standard Type>
pKa_B1

>  <Standard Value>
8.8

>  <Comment>
'B1 Functional Group: Tertiary amine; Ionisation Formula: A0B1 (Functional Group: the part of the molecule the pKa refers to; Ionisation formula: AxBy where 'A' refers to acidic centers within the molecule that are appreciably ionised at a pH <= 11 and 'x' equals 0, 1 or 2; and 'B' refers to basic centers within the molecule that are appreciably ionised at a pH >= 2 and 'y' equals 0, 1, 2 or 3).'

>  <Potential Duplicate>
false

>  <Assay ChEMBL ID>
CHEMBL3301362

>  <Assay Description>
ASTRAZENECA: Most basic pKa value (pKa B1) determined by absorption and potentiometric titration using standard methodology from Sirius Analytical. Experimental range Bases: >= 2.

>  <Assay Type>
P

>  <BAO Format ID>
BAO_0000100

>  <BAO Label>
small-molecule physicochemical format

>  <Target ChEMBL ID>
CHEMBL2362975

>  <Target Name>
No relevant target

>  <Target Type>
NO TARGET

>  <Document ChEMBL ID>
CHEMBL3301361

>  <Source ID>
27

>  <Source Description>
AstraZeneca Deposited Data

>  <Strongest basic pKa>
7.44

>  <deltapKa>
1.358323837048225

>  <Strongest basic pKa_Taut>
7.44

>  <deltapKa_TAut>
1.358323837048225

$$$$

  Mrv1920 03272013312D          

 26 29  0  0  0  0            999 V2000
    3.5724   -2.8875    0.0000 C   0  0  0  0  0  0  0  0  0  0  0  0
    2.8579   -2.4750    0.0000 C   0  0  0  0  0  0  0  0  0  0  0  0
    2.1434   -2.8875    0.0000 C   0  0  0  0  0  0  0  0  0  0  0  0
    1.4289   -2.4750    0.0000 O   0  0  0  0  0  0  0  0  0  0  0  0
    1.4289   -1.6500    0.0000 C   0  0  0  0  0  0  0  0  0  0  0  0
    0.7145   -1.2375    0.0000 C   0  0  0  0  0  0  0  0  0  0  0  0
    0.0000   -1.6500    0.0000 N   0  0  0  0  0  0  0  0  0  0  0  0
    0.0000   -2.4750    0.0000 C   0  0  0  0  0  0  0  0  0  0  0  0
   -0.7145   -2.8875    0.0000 C   0  0  0  0  0  0  0  0  0  0  0  0
   -1.4289   -2.4750    0.0000 N   0  0  0  0  0  0  0  0  0  0  0  0
   -2.1434   -2.8875    0.0000 C   0  0  0  0  0  0  0  0  0  0  0  0
   -1.4289   -1.6500    0.0000 C   0  0  0  0  0  0  0  0  0  0  0  0
   -0.7145   -1.2375    0.0000 C   0  0  0  0  0  0  0  0  0  0  0  0
    0.7145   -0.4125    0.0000 C   0  0  0  0  0  0  0  0  0  0  0  0
    0.0000    0.0000    0.0000 F   0  0  0  0  0  0  0  0  0  0  0  0
    1.4289    0.0000    0.0000 C   0  0  0  0  0  0  0  0  0  0  0  0
    2.1434   -0.4125    0.0000 C   0  0  0  0  0  0  0  0  0  0  0  0
    2.8579    0.0000    0.0000 C   0  0  0  0  0  0  0  0  0  0  0  0
    2.8579    0.8250    0.0000 O   0  0  0  0  0  0  0  0  0  0  0  0
    3.5724   -0.4125    0.0000 C   0  0  0  0  0  0  0  0  0  0  0  0
    4.2868    0.0000    0.0000 C   0  0  0  0  0  0  0  0  0  0  0  0
    4.2868    0.8250    0.0000 O   0  0  0  0  0  0  0  0  0  0  0  0
    5.0013   -0.4125    0.0000 O   0  0  0  0  0  0  0  0  0  0  0  0
    3.5724   -1.2375    0.0000 C   0  0  0  0  0  0  0  0  0  0  0  0
    2.8579   -1.6500    0.0000 N   0  0  0  0  0  0  0  0  0  0  0  0
    2.1434   -1.2375    0.0000 C   0  0  0  0  0  0  0  0  0  0  0  0
  1  2  1  0  0  0  0
  2  3  1  0  0  0  0
  3  4  1  0  0  0  0
  4  5  1  0  0  0  0
  5  6  1  0  0  0  0
  6  7  1  0  0  0  0
  7  8  1  0  0  0  0
  8  9  1  0  0  0  0
  9 10  1  0  0  0  0
 10 11  1  0  0  0  0
 10 12  1  0  0  0  0
 12 13  1  0  0  0  0
  7 13  1  0  0  0  0
  6 14  2  0  0  0  0
 14 15  1  0  0  0  0
 14 16  1  0  0  0  0
 16 17  2  0  0  0  0
 17 18  1  0  0  0  0
 18 19  2  0  0  0  0
 18 20  1  0  0  0  0
 20 21  1  0  0  0  0
 21 22  2  0  0  0  0
 21 23  1  0  0  0  0
 20 24  2  0  0  0  0
 24 25  1  0  0  0  0
  2 25  1  0  0  0  0
 25 26  1  0  0  0  0
  5 26  2  0  0  0  0
 17 26  1  0  0  0  0
M  END
>  <StandardizerResult>
Tautomerize


>  <CdId>
57

>  <Mol Weight>
361.37

>  <Formula>
C18H20FN3O4

>  <Molecule ChEMBL ID>
CHEMBL4

>  <Molecule Name>
OFLOXACIN

>  <Molecule Max Phase>
4

>  <Molecular Weight>
361.37

>  <#RO5 Violations>
0

>  <AlogP>
1.54

>  <Compound Key>
1812

>  <Standard Type>
pKa_B1

>  <Standard Value>
8.1

>  <Comment>
'B1 Functional Group: Piperazine; Ionisation Formula: A1B1 (Functional Group: the part of the molecule the pKa refers to; Ionisation formula: AxBy where 'A' refers to acidic centers within the molecule that are appreciably ionised at a pH <= 11 and 'x' equals 0, 1 or 2; and 'B' refers to basic centers within the molecule that are appreciably ionised at a pH >= 2 and 'y' equals 0, 1, 2 or 3).'

>  <Potential Duplicate>
false

>  <Assay ChEMBL ID>
CHEMBL3301362

>  <Assay Description>
ASTRAZENECA: Most basic pKa value (pKa B1) determined by absorption and potentiometric titration using standard methodology from Sirius Analytical. Experimental range Bases: >= 2.

>  <Assay Type>
P

>  <BAO Format ID>
BAO_0000100

>  <BAO Label>
small-molecule physicochemical format

>  <Target ChEMBL ID>
CHEMBL2362975

>  <Target Name>
No relevant target

>  <Target Type>
NO TARGET

>  <Document ChEMBL ID>
CHEMBL3301361

>  <Source ID>
27

>  <Source Description>
AstraZeneca Deposited Data

>  <Strongest basic pKa>
6.72

>  <deltapKa>
1.3825788159736847

>  <Strongest basic pKa_Taut>
6.72

>  <deltapKa_TAut>
1.3825788159736847

$$$$

  Mrv1920 03272013312D          

 31 33  0  0  1  0            999 V2000
    6.4302   -2.0625    0.0000 O   0  0  0  0  0  0  0  0  0  0  0  0
    6.4302   -2.8875    0.0000 C   0  0  0  0  0  0  0  0  0  0  0  0
    7.1447   -3.3000    0.0000 N   0  0  0  0  0  0  0  0  0  0  0  0
    7.8592   -2.8875    0.0000 C   0  0  0  0  0  0  0  0  0  0  0  0
    8.5737   -3.3000    0.0000 C   0  0  1  0  0  0  0  0  0  0  0  0
    8.5737   -4.1250    0.0000 O   0  0  0  0  0  0  0  0  0  0  0  0
    9.2881   -2.8875    0.0000 C   0  0  0  0  0  0  0  0  0  0  0  0
   10.0026   -3.3000    0.0000 N   0  0  0  0  0  0  0  0  0  0  0  0
   10.7171   -2.8875    0.0000 C   0  0  0  0  0  0  0  0  0  0  0  0
   11.4315   -3.3000    0.0000 C   0  0  0  0  0  0  0  0  0  0  0  0
   11.4315   -4.1250    0.0000 C   0  0  0  0  0  0  0  0  0  0  0  0
   12.1460   -4.5375    0.0000 O   0  0  0  0  0  0  0  0  0  0  0  0
   12.1460   -5.3625    0.0000 C   0  0  0  0  0  0  0  0  0  0  0  0
   12.8605   -5.7750    0.0000 C   0  0  0  0  0  0  0  0  0  0  0  0
   12.8605   -6.6000    0.0000 C   0  0  0  0  0  0  0  0  0  0  0  0
   12.1460   -7.0125    0.0000 C   0  0  0  0  0  0  0  0  0  0  0  0
   12.1460   -7.8375    0.0000 Cl  0  0  0  0  0  0  0  0  0  0  0  0
   11.4315   -6.6000    0.0000 C   0  0  0  0  0  0  0  0  0  0  0  0
   10.7171   -7.0125    0.0000 Cl  0  0  0  0  0  0  0  0  0  0  0  0
   11.4315   -5.7750    0.0000 C   0  0  0  0  0  0  0  0  0  0  0  0
   10.7171   -4.5375    0.0000 C   0  0  0  0  0  0  0  0  0  0  0  0
   10.0026   -4.1250    0.0000 C   0  0  0  0  0  0  0  0  0  0  0  0
    5.7158   -3.3000    0.0000 C   0  0  0  0  0  0  0  0  0  0  0  0
    5.6295   -4.1205    0.0000 C   0  0  0  0  0  0  0  0  0  0  0  0
    4.8226   -4.2920    0.0000 N   0  0  0  0  0  0  0  0  0  0  0  0
    4.4101   -3.5775    0.0000 N   0  0  0  0  0  0  0  0  0  0  0  0
    4.9621   -2.9644    0.0000 C   0  0  0  0  0  0  0  0  0  0  0  0
    4.7906   -2.1575    0.0000 C   0  0  0  0  0  0  0  0  0  0  0  0
    4.6190   -1.3505    0.0000 F   0  0  0  0  0  0  0  0  0  0  0  0
    5.5975   -1.9859    0.0000 F   0  0  0  0  0  0  0  0  0  0  0  0
    3.9836   -2.3290    0.0000 F   0  0  0  0  0  0  0  0  0  0  0  0
  1  2  2  0  0  0  0
  2  3  1  0  0  0  0
  3  4  1  0  0  0  0
  5  4  1  0  0  0  0
  5  6  1  6  0  0  0
  5  7  1  0  0  0  0
  7  8  1  0  0  0  0
  8  9  1  0  0  0  0
  9 10  1  0  0  0  0
 10 11  1  0  0  0  0
 11 12  1  0  0  0  0
 12 13  1  0  0  0  0
 13 14  2  0  0  0  0
 14 15  1  0  0  0  0
 15 16  2  0  0  0  0
 16 17  1  0  0  0  0
 16 18  1  0  0  0  0
 18 19  1  0  0  0  0
 18 20  2  0  0  0  0
 13 20  1  0  0  0  0
 11 21  1  0  0  0  0
 21 22  1  0  0  0  0
  8 22  1  0  0  0  0
  2 23  1  0  0  0  0
 23 24  1  0  0  0  0
 24 25  2  0  0  0  0
 25 26  1  0  0  0  0
 26 27  1  0  0  0  0
 23 27  2  0  0  0  0
 27 28  1  0  0  0  0
 28 29  1  0  0  0  0
 28 30  1  0  0  0  0
 28 31  1  0  0  0  0
M  END
>  <StandardizerResult>
Tautomerize


>  <CdId>
260

>  <Mol Weight>
481.3

>  <Formula>
C19H21Cl2F3N4O3

>  <Molecule ChEMBL ID>
CHEMBL2207658

>  <Molecule Max Phase>
0

>  <Molecular Weight>
481.3

>  <#RO5 Violations>
0

>  <AlogP>
3.37

>  <Compound Key>
2361

>  <Standard Type>
pKa_B1

>  <Standard Value>
9.1

>  <Comment>
'B1 Functional Group: Piperidine; Ionisation Formula: A1B1 (Functional Group: the part of the molecule the pKa refers to; Ionisation formula: AxBy where 'A' refers to acidic centers within the molecule that are appreciably ionised at a pH <= 11 and 'x' equals 0, 1 or 2; and 'B' refers to basic centers within the molecule that are appreciably ionised at a pH >= 2 and 'y' equals 0, 1, 2 or 3).'

>  <Potential Duplicate>
false

>  <Assay ChEMBL ID>
CHEMBL3301362

>  <Assay Description>
ASTRAZENECA: Most basic pKa value (pKa B1) determined by absorption and potentiometric titration using standard methodology from Sirius Analytical. Experimental range Bases: >= 2.

>  <Assay Type>
P

>  <BAO Format ID>
BAO_0000100

>  <BAO Label>
small-molecule physicochemical format

>  <Target ChEMBL ID>
CHEMBL2362975

>  <Target Name>
No relevant target

>  <Target Type>
NO TARGET

>  <Document ChEMBL ID>
CHEMBL3301361

>  <Source ID>
27

>  <Source Description>
AstraZeneca Deposited Data

>  <Strongest basic pKa>
7.97

>  <deltapKa>
1.1263287844436531

>  <Strongest basic pKa_Taut>
7.69

>  <deltapKa_TAut>
1.4057344500290556

$$$$

  Mrv1920 03272013312D          

 26 29  0  0  1  0            999 V2000
    3.5724   -2.8875    0.0000 C   0  0  0  0  0  0  0  0  0  0  0  0
    2.8579   -2.4750    0.0000 C   0  0  1  0  0  0  0  0  0  0  0  0
    2.1434   -2.8875    0.0000 C   0  0  0  0  0  0  0  0  0  0  0  0
    1.4289   -2.4750    0.0000 O   0  0  0  0  0  0  0  0  0  0  0  0
    1.4289   -1.6500    0.0000 C   0  0  0  0  0  0  0  0  0  0  0  0
    0.7145   -1.2375    0.0000 C   0  0  0  0  0  0  0  0  0  0  0  0
    0.0000   -1.6500    0.0000 N   0  0  0  0  0  0  0  0  0  0  0  0
    0.0000   -2.4750    0.0000 C   0  0  0  0  0  0  0  0  0  0  0  0
   -0.7145   -2.8875    0.0000 C   0  0  0  0  0  0  0  0  0  0  0  0
   -1.4289   -2.4750    0.0000 N   0  0  0  0  0  0  0  0  0  0  0  0
   -2.1434   -2.8875    0.0000 C   0  0  0  0  0  0  0  0  0  0  0  0
   -1.4289   -1.6500    0.0000 C   0  0  0  0  0  0  0  0  0  0  0  0
   -0.7145   -1.2375    0.0000 C   0  0  0  0  0  0  0  0  0  0  0  0
    0.7145   -0.4125    0.0000 C   0  0  0  0  0  0  0  0  0  0  0  0
    0.0000    0.0000    0.0000 F   0  0  0  0  0  0  0  0  0  0  0  0
    1.4289    0.0000    0.0000 C   0  0  0  0  0  0  0  0  0  0  0  0
    2.1434   -0.4125    0.0000 C   0  0  0  0  0  0  0  0  0  0  0  0
    2.8579    0.0000    0.0000 C   0  0  0  0  0  0  0  0  0  0  0  0
    2.8579    0.8250    0.0000 O   0  0  0  0  0  0  0  0  0  0  0  0
    3.5724   -0.4125    0.0000 C   0  0  0  0  0  0  0  0  0  0  0  0
    4.2868    0.0000    0.0000 C   0  0  0  0  0  0  0  0  0  0  0  0
    4.2868    0.8250    0.0000 O   0  0  0  0  0  0  0  0  0  0  0  0
    5.0013   -0.4125    0.0000 O   0  0  0  0  0  0  0  0  0  0  0  0
    3.5724   -1.2375    0.0000 C   0  0  0  0  0  0  0  0  0  0  0  0
    2.8579   -1.6500    0.0000 N   0  0  0  0  0  0  0  0  0  0  0  0
    2.1434   -1.2375    0.0000 C   0  0  0  0  0  0  0  0  0  0  0  0
  2  1  1  1  0  0  0
  2  3  1  0  0  0  0
  3  4  1  0  0  0  0
  4  5  1  0  0  0  0
  5  6  1  0  0  0  0
  6  7  1  0  0  0  0
  7  8  1  0  0  0  0
  8  9  1  0  0  0  0
  9 10  1  0  0  0  0
 10 11  1  0  0  0  0
 10 12  1  0  0  0  0
 12 13  1  0  0  0  0
  7 13  1  0  0  0  0
  6 14  2  0  0  0  0
 14 15  1  0  0  0  0
 14 16  1  0  0  0  0
 16 17  2  0  0  0  0
 17 18  1  0  0  0  0
 18 19  2  0  0  0  0
 18 20  1  0  0  0  0
 20 21  1  0  0  0  0
 21 22  2  0  0  0  0
 21 23  1  0  0  0  0
 20 24  2  0  0  0  0
 24 25  1  0  0  0  0
  2 25  1  0  0  0  0
 25 26  1  0  0  0  0
  5 26  2  0  0  0  0
 17 26  1  0  0  0  0
M  END
>  <StandardizerResult>
Tautomerize


>  <CdId>
170

>  <Mol Weight>
361.37

>  <Formula>
C18H20FN3O4

>  <Molecule ChEMBL ID>
CHEMBL33

>  <Molecule Name>
LEVOFLOXACIN

>  <Molecule Max Phase>
4

>  <Molecular Weight>
361.37

>  <#RO5 Violations>
0

>  <AlogP>
1.54

>  <Compound Key>
Levofloxacin

>  <Standard Type>
pKa_B1

>  <Standard Value>
8.14

>  <Comment>
'B1 Functional Group: Piperazine; Ionisation Formula: A1B1 (Functional Group: the part of the molecule the pKa refers to; Ionisation formula: AxBy where 'A' refers to acidic centers within the molecule that are appreciably ionised at a pH <= 11 and 'x' equals 0, 1 or 2; and 'B' refers to basic centers within the molecule that are appreciably ionised at a pH >= 2 and 'y' equals 0, 1, 2 or 3).'

>  <Potential Duplicate>
false

>  <Assay ChEMBL ID>
CHEMBL3301362

>  <Assay Description>
ASTRAZENECA: Most basic pKa value (pKa B1) determined by absorption and potentiometric titration using standard methodology from Sirius Analytical. Experimental range Bases: >= 2.

>  <Assay Type>
P

>  <BAO Format ID>
BAO_0000100

>  <BAO Label>
small-molecule physicochemical format

>  <Target ChEMBL ID>
CHEMBL2362975

>  <Target Name>
No relevant target

>  <Target Type>
NO TARGET

>  <Document ChEMBL ID>
CHEMBL3301361

>  <Source ID>
27

>  <Source Description>
AstraZeneca Deposited Data

>  <Strongest basic pKa>
6.72

>  <deltapKa>
1.4225788159736856

>  <Strongest basic pKa_Taut>
6.72

>  <deltapKa_TAut>
1.4225788159736856

$$$$

  Mrv1920 03272013312D          

 26 28  0  0  0  0            999 V2000
   -2.1434   -2.8875    0.0000 C   0  0  0  0  0  0  0  0  0  0  0  0
   -1.4289   -2.4750    0.0000 N   0  0  0  0  0  0  0  0  0  0  0  0
   -1.4289   -1.6500    0.0000 C   0  0  0  0  0  0  0  0  0  0  0  0
   -0.7145   -1.2375    0.0000 C   0  0  0  0  0  0  0  0  0  0  0  0
    0.0000   -1.6500    0.0000 N   0  0  0  0  0  0  0  0  0  0  0  0
    0.7145   -1.2375    0.0000 C   0  0  0  0  0  0  0  0  0  0  0  0
    0.7145   -0.4125    0.0000 C   0  0  0  0  0  0  0  0  0  0  0  0
    0.0000    0.0000    0.0000 F   0  0  0  0  0  0  0  0  0  0  0  0
    1.4289    0.0000    0.0000 C   0  0  0  0  0  0  0  0  0  0  0  0
    2.1434   -0.4125    0.0000 C   0  0  0  0  0  0  0  0  0  0  0  0
    2.8579    0.0000    0.0000 C   0  0  0  0  0  0  0  0  0  0  0  0
    2.8579    0.8250    0.0000 O   0  0  0  0  0  0  0  0  0  0  0  0
    3.5724   -0.4125    0.0000 C   0  0  0  0  0  0  0  0  0  0  0  0
    4.2868    0.0000    0.0000 C   0  0  0  0  0  0  0  0  0  0  0  0
    4.2868    0.8250    0.0000 O   0  0  0  0  0  0  0  0  0  0  0  0
    5.0013   -0.4125    0.0000 O   0  0  0  0  0  0  0  0  0  0  0  0
    3.5724   -1.2375    0.0000 C   0  0  0  0  0  0  0  0  0  0  0  0
    2.8579   -1.6500    0.0000 N   0  0  0  0  0  0  0  0  0  0  0  0
    2.8579   -2.4750    0.0000 C   0  0  0  0  0  0  0  0  0  0  0  0
    3.5724   -2.8875    0.0000 C   0  0  0  0  0  0  0  0  0  0  0  0
    3.5724   -3.7125    0.0000 F   0  0  0  0  0  0  0  0  0  0  0  0
    2.1434   -1.2375    0.0000 C   0  0  0  0  0  0  0  0  0  0  0  0
    1.4289   -1.6500    0.0000 C   0  0  0  0  0  0  0  0  0  0  0  0
    1.4289   -2.4750    0.0000 F   0  0  0  0  0  0  0  0  0  0  0  0
    0.0000   -2.4750    0.0000 C   0  0  0  0  0  0  0  0  0  0  0  0
   -0.7145   -2.8875    0.0000 C   0  0  0  0  0  0  0  0  0  0  0  0
  1  2  1  0  0  0  0
  2  3  1  0  0  0  0
  3  4  1  0  0  0  0
  4  5  1  0  0  0  0
  5  6  1  0  0  0  0
  6  7  2  0  0  0  0
  7  8  1  0  0  0  0
  7  9  1  0  0  0  0
  9 10  2  0  0  0  0
 10 11  1  0  0  0  0
 11 12  2  0  0  0  0
 11 13  1  0  0  0  0
 13 14  1  0  0  0  0
 14 15  2  0  0  0  0
 14 16  1  0  0  0  0
 13 17  2  0  0  0  0
 17 18  1  0  0  0  0
 18 19  1  0  0  0  0
 19 20  1  0  0  0  0
 20 21  1  0  0  0  0
 18 22  1  0  0  0  0
 10 22  1  0  0  0  0
 22 23  2  0  0  0  0
  6 23  1  0  0  0  0
 23 24  1  0  0  0  0
  5 25  1  0  0  0  0
 25 26  1  0  0  0  0
  2 26  1  0  0  0  0
M  END
>  <StandardizerResult>
Tautomerize


>  <CdId>
23

>  <Mol Weight>
369.34

>  <Formula>
C17H18F3N3O3

>  <Molecule ChEMBL ID>
CHEMBL6273

>  <Molecule Name>
FLEROXACIN

>  <Molecule Max Phase>
0

>  <Molecular Weight>
369.34

>  <#RO5 Violations>
0

>  <AlogP>
1.7

>  <Compound Key>
3545

>  <Standard Type>
pKa_B1

>  <Standard Value>
7.91

>  <Comment>
'B1 Functional Group: Piperazine; Ionisation Formula: A1B1 (Functional Group: the part of the molecule the pKa refers to; Ionisation formula: AxBy where 'A' refers to acidic centers within the molecule that are appreciably ionised at a pH <= 11 and 'x' equals 0, 1 or 2; and 'B' refers to basic centers within the molecule that are appreciably ionised at a pH >= 2 and 'y' equals 0, 1, 2 or 3).'

>  <Potential Duplicate>
false

>  <Assay ChEMBL ID>
CHEMBL3301362

>  <Assay Description>
ASTRAZENECA: Most basic pKa value (pKa B1) determined by absorption and potentiometric titration using standard methodology from Sirius Analytical. Experimental range Bases: >= 2.

>  <Assay Type>
P

>  <BAO Format ID>
BAO_0000100

>  <BAO Label>
small-molecule physicochemical format

>  <Target ChEMBL ID>
CHEMBL2362975

>  <Target Name>
No relevant target

>  <Target Type>
NO TARGET

>  <Document ChEMBL ID>
CHEMBL3301361

>  <Source ID>
27

>  <Source Description>
AstraZeneca Deposited Data

>  <Strongest basic pKa>
6.48

>  <deltapKa>
1.4306531931331499

>  <Strongest basic pKa_Taut>
6.48

>  <deltapKa_TAut>
1.4306531931331499

$$$$

  Mrv1920 03272013312D          

 30 32  0  0  0  0            999 V2000
   -0.7145   -1.2375    0.0000 O   0  0  0  0  0  0  0  0  0  0  0  0
   -1.4289   -1.6500    0.0000 C   0  0  0  0  0  0  0  0  0  0  0  0
   -2.1434   -1.2375    0.0000 O   0  0  0  0  0  0  0  0  0  0  0  0
   -1.4289   -2.4750    0.0000 C   0  0  0  0  0  0  0  0  0  0  0  0
   -2.1434   -2.8875    0.0000 O   0  0  0  0  0  0  0  0  0  0  0  0
   -2.1434   -3.7125    0.0000 C   0  0  0  0  0  0  0  0  0  0  0  0
   -1.4289   -4.1250    0.0000 C   0  0  0  0  0  0  0  0  0  0  0  0
   -1.4289   -4.9500    0.0000 C   0  0  0  0  0  0  0  0  0  0  0  0
   -2.1434   -5.3625    0.0000 C   0  0  0  0  0  0  0  0  0  0  0  0
   -2.1434   -6.1875    0.0000 C   0  0  0  0  0  0  0  0  0  0  0  0
   -2.1434   -7.0125    0.0000 F   0  0  0  0  0  0  0  0  0  0  0  0
   -2.9684   -6.1875    0.0000 F   0  0  0  0  0  0  0  0  0  0  0  0
   -1.3184   -6.1875    0.0000 F   0  0  0  0  0  0  0  0  0  0  0  0
   -2.8579   -4.9500    0.0000 C   0  0  0  0  0  0  0  0  0  0  0  0
   -2.8579   -4.1250    0.0000 C   0  0  0  0  0  0  0  0  0  0  0  0
   -3.5724   -3.7125    0.0000 C   0  0  0  0  0  0  0  0  0  0  0  0
   -3.5724   -2.8875    0.0000 N   0  0  0  0  0  0  0  0  0  0  0  0
   -4.2868   -2.4750    0.0000 C   0  0  0  0  0  0  0  0  0  0  0  0
   -4.2868   -1.6500    0.0000 C   0  0  0  0  0  0  0  0  0  0  0  0
   -3.5724   -1.2375    0.0000 N   0  0  0  0  0  0  0  0  0  0  0  0
   -3.5724   -0.4125    0.0000 C   0  0  0  0  0  0  0  0  0  0  0  0
   -2.8579    0.0000    0.0000 O   0  0  0  0  0  0  0  0  0  0  0  0
   -4.2868    0.0000    0.0000 C   0  0  0  0  0  0  0  0  0  0  0  0
   -5.0013   -0.4125    0.0000 C   0  0  0  0  0  0  0  0  0  0  0  0
   -5.7158    0.0000    0.0000 C   0  0  0  0  0  0  0  0  0  0  0  0
   -5.7158    0.8250    0.0000 C   0  0  0  0  0  0  0  0  0  0  0  0
   -5.0013    1.2375    0.0000 C   0  0  0  0  0  0  0  0  0  0  0  0
   -4.2868    0.8250    0.0000 C   0  0  0  0  0  0  0  0  0  0  0  0
   -2.8579   -1.6500    0.0000 C   0  0  0  0  0  0  0  0  0  0  0  0
   -2.8579   -2.4750    0.0000 C   0  0  0  0  0  0  0  0  0  0  0  0
  1  2  2  0  0  0  0
  2  3  1  0  0  0  0
  2  4  1  0  0  0  0
  4  5  1  0  0  0  0
  5  6  1  0  0  0  0
  6  7  2  0  0  0  0
  7  8  1  0  0  0  0
  8  9  2  0  0  0  0
  9 10  1  0  0  0  0
 10 11  1  0  0  0  0
 10 12  1  0  0  0  0
 10 13  1  0  0  0  0
  9 14  1  0  0  0  0
 14 15  2  0  0  0  0
  6 15  1  0  0  0  0
 15 16  1  0  0  0  0
 16 17  1  0  0  0  0
 17 18  1  0  0  0  0
 18 19  1  0  0  0  0
 19 20  1  0  0  0  0
 20 21  1  0  0  0  0
 21 22  2  0  0  0  0
 21 23  1  0  0  0  0
 23 24  2  0  0  0  0
 24 25  1  0  0  0  0
 25 26  2  0  0  0  0
 26 27  1  0  0  0  0
 27 28  2  0  0  0  0
 23 28  1  0  0  0  0
 20 29  1  0  0  0  0
 29 30  1  0  0  0  0
 17 30  1  0  0  0  0
M  END
>  <StandardizerResult>
Tautomerize


>  <CdId>
183

>  <Mol Weight>
422.4

>  <Formula>
C21H21F3N2O4

>  <Molecule ChEMBL ID>
CHEMBL1689112

>  <Molecule Max Phase>
0

>  <Molecular Weight>
422.4

>  <#RO5 Violations>
0

>  <AlogP>
3.13

>  <Compound Key>
3171

>  <Standard Type>
pKa_B1

>  <Standard Value>
6.9

>  <Comment>
'B1 Functional Group: Piperazine; Ionisation Formula: A1B1 (Functional Group: the part of the molecule the pKa refers to; Ionisation formula: AxBy where 'A' refers to acidic centers within the molecule that are appreciably ionised at a pH <= 11 and 'x' equals 0, 1 or 2; and 'B' refers to basic centers within the molecule that are appreciably ionised at a pH >= 2 and 'y' equals 0, 1, 2 or 3).'

>  <Potential Duplicate>
false

>  <Assay ChEMBL ID>
CHEMBL3301362

>  <Assay Description>
ASTRAZENECA: Most basic pKa value (pKa B1) determined by absorption and potentiometric titration using standard methodology from Sirius Analytical. Experimental range Bases: >= 2.

>  <Assay Type>
P

>  <BAO Format ID>
BAO_0000100

>  <BAO Label>
small-molecule physicochemical format

>  <Target ChEMBL ID>
CHEMBL2362975

>  <Target Name>
No relevant target

>  <Target Type>
NO TARGET

>  <Document ChEMBL ID>
CHEMBL3301361

>  <Source ID>
27

>  <Source Description>
AstraZeneca Deposited Data

>  <Strongest basic pKa>
5.35

>  <deltapKa>
1.55283245268821

>  <Strongest basic pKa_Taut>
5.35

>  <deltapKa_TAut>
1.55283245268821

$$$$

  Mrv1920 03272013312D          

 18 19  0  0  0  0            999 V2000
    6.2102    1.9354    0.0000 C   0  0  0  0  0  0  0  0  0  0  0  0
    5.4957    2.3479    0.0000 C   0  0  0  0  0  0  0  0  0  0  0  0
    4.7812    1.9354    0.0000 C   0  0  0  0  0  0  0  0  0  0  0  0
    4.0668    2.3479    0.0000 S   0  0  0  0  0  0  0  0  0  0  0  0
    3.3523    1.9354    0.0000 C   0  0  0  0  0  0  0  0  0  0  0  0
    3.3523    1.1104    0.0000 C   0  0  0  0  0  0  0  0  0  0  0  0
    2.6378    0.6979    0.0000 C   0  0  0  0  0  0  0  0  0  0  0  0
    1.9233    1.1104    0.0000 C   0  0  0  0  0  0  0  0  0  0  0  0
    1.1387    0.8555    0.0000 N   0  0  0  0  0  0  0  0  0  0  0  0
    0.6538    1.5229    0.0000 C   0  0  0  0  0  0  0  0  0  0  0  0
   -0.1712    1.5229    0.0000 N   0  0  0  0  0  0  0  0  0  0  0  0
   -0.5837    0.8085    0.0000 C   0  0  0  0  0  0  0  0  0  0  0  0
   -0.1712    0.0940    0.0000 O   0  0  0  0  0  0  0  0  0  0  0  0
   -1.4087    0.8085    0.0000 O   0  0  0  0  0  0  0  0  0  0  0  0
   -1.8212    0.0940    0.0000 C   0  0  0  0  0  0  0  0  0  0  0  0
    1.1387    2.1904    0.0000 N   0  0  0  0  0  0  0  0  0  0  0  0
    1.9233    1.9354    0.0000 C   0  0  0  0  0  0  0  0  0  0  0  0
    2.6378    2.3479    0.0000 C   0  0  0  0  0  0  0  0  0  0  0  0
  1  2  1  0  0  0  0
  2  3  1  0  0  0  0
  3  4  1  0  0  0  0
  4  5  1  0  0  0  0
  5  6  2  0  0  0  0
  6  7  1  0  0  0  0
  7  8  2  0  0  0  0
  8  9  1  0  0  0  0
  9 10  2  0  0  0  0
 10 11  1  0  0  0  0
 11 12  1  0  0  0  0
 12 13  2  0  0  0  0
 12 14  1  0  0  0  0
 14 15  1  0  0  0  0
 10 16  1  0  0  0  0
 16 17  1  0  0  0  0
  8 17  1  0  0  0  0
 17 18  2  0  0  0  0
  5 18  1  0  0  0  0
M  END
>  <StandardizerResult>
Tautomerize


>  <CdId>
154

>  <Mol Weight>
265.33

>  <Formula>
C12H15N3O2S

>  <Molecule ChEMBL ID>
CHEMBL1483

>  <Molecule Name>
ALBENDAZOLE

>  <Molecule Max Phase>
4

>  <Molecular Weight>
265.34

>  <#RO5 Violations>
0

>  <AlogP>
3.24

>  <Compound Key>
640

>  <Standard Type>
pKa_B1

>  <Standard Value>
5.88

>  <Comment>
'B1 Functional Group: 1H-benzimidazol-2-amine, 5-(methylsulfanyl)-; Ionisation Formula: A1B1 (Functional Group: the part of the molecule the pKa refers to; Ionisation formula: AxBy where 'A' refers to acidic centers within the molecule that are appreciably ionised at a pH <= 11 and 'x' equals 0, 1 or 2; and 'B' refers to basic centers within the molecule that are appreciably ionised at a pH >= 2 and 'y' equals 0, 1, 2 or 3).'

>  <Potential Duplicate>
false

>  <Assay ChEMBL ID>
CHEMBL3301362

>  <Assay Description>
ASTRAZENECA: Most basic pKa value (pKa B1) determined by absorption and potentiometric titration using standard methodology from Sirius Analytical. Experimental range Bases: >= 2.

>  <Assay Type>
P

>  <BAO Format ID>
BAO_0000100

>  <BAO Label>
small-molecule physicochemical format

>  <Target ChEMBL ID>
CHEMBL2362975

>  <Target Name>
No relevant target

>  <Target Type>
NO TARGET

>  <Document ChEMBL ID>
CHEMBL3301361

>  <Source ID>
27

>  <Source Description>
AstraZeneca Deposited Data

>  <Strongest basic pKa>
4.27

>  <deltapKa>
1.605705707919844

>  <Strongest basic pKa_Taut>
4.27

>  <deltapKa_TAut>
1.605705707919844

$$$$

  Mrv1920 03272013312D          

 16 18  0  0  0  0            999 V2000
    1.4289   -2.4750    0.0000 N   0  0  0  0  0  0  0  0  0  0  0  0
    1.4289   -1.6500    0.0000 C   0  0  0  0  0  0  0  0  0  0  0  0
    0.7145   -1.2375    0.0000 N   0  0  0  0  0  0  0  0  0  0  0  0
    0.7145   -0.4125    0.0000 C   0  0  0  0  0  0  0  0  0  0  0  0
    0.0000    0.0000    0.0000 C   0  0  0  0  0  0  0  0  0  0  0  0
   -0.7537   -0.3356    0.0000 C   0  0  0  0  0  0  0  0  0  0  0  0
   -1.3057    0.2775    0.0000 C   0  0  0  0  0  0  0  0  0  0  0  0
   -0.8932    0.9920    0.0000 C   0  0  0  0  0  0  0  0  0  0  0  0
   -0.0862    0.8205    0.0000 O   0  0  0  0  0  0  0  0  0  0  0  0
    1.4289    0.0000    0.0000 N   0  0  0  0  0  0  0  0  0  0  0  0
    2.1434   -0.4125    0.0000 C   0  0  0  0  0  0  0  0  0  0  0  0
    2.8579    0.0000    0.0000 C   0  0  0  0  0  0  0  0  0  0  0  0
    3.5724   -0.4125    0.0000 C   0  0  0  0  0  0  0  0  0  0  0  0
    3.5724   -1.2375    0.0000 C   0  0  0  0  0  0  0  0  0  0  0  0
    2.8579   -1.6500    0.0000 C   0  0  0  0  0  0  0  0  0  0  0  0
    2.1434   -1.2375    0.0000 C   0  0  0  0  0  0  0  0  0  0  0  0
  1  2  1  0  0  0  0
  2  3  2  0  0  0  0
  3  4  1  0  0  0  0
  4  5  1  0  0  0  0
  5  6  2  0  0  0  0
  6  7  1  0  0  0  0
  7  8  2  0  0  0  0
  8  9  1  0  0  0  0
  5  9  1  0  0  0  0
  4 10  1  0  0  0  0
 10 11  1  0  0  0  0
 11 12  2  0  0  0  0
 12 13  1  0  0  0  0
 13 14  2  0  0  0  0
 14 15  1  0  0  0  0
 15 16  2  0  0  0  0
 11 16  1  0  0  0  0
  2 16  1  0  0  0  0
M  END
>  <StandardizerResult>
Tautomerize


>  <CdId>
112

>  <Mol Weight>
213.24

>  <Formula>
C12H11N3O

>  <Molecule ChEMBL ID>
CHEMBL368636

>  <Molecule Max Phase>
0

>  <Molecular Weight>
213.24

>  <#RO5 Violations>
0

>  <AlogP>
2.11

>  <Compound Key>
1501

>  <Standard Type>
pKa_B1

>  <Standard Value>
9.13

>  <Comment>
'B1 Functional Group: 4-Quiniazolinamine, 1,2-dihydro-; Ionisation Formula: A0B1 (Functional Group: the part of the molecule the pKa refers to; Ionisation formula: AxBy where 'A' refers to acidic centers within the molecule that are appreciably ionised at a pH <= 11 and 'x' equals 0, 1 or 2; and 'B' refers to basic centers within the molecule that are appreciably ionised at a pH >= 2 and 'y' equals 0, 1, 2 or 3).'

>  <Potential Duplicate>
false

>  <Assay ChEMBL ID>
CHEMBL3301362

>  <Assay Description>
ASTRAZENECA: Most basic pKa value (pKa B1) determined by absorption and potentiometric titration using standard methodology from Sirius Analytical. Experimental range Bases: >= 2.

>  <Assay Type>
P

>  <BAO Format ID>
BAO_0000100

>  <BAO Label>
small-molecule physicochemical format

>  <Target ChEMBL ID>
CHEMBL2362975

>  <Target Name>
No relevant target

>  <Target Type>
NO TARGET

>  <Document ChEMBL ID>
CHEMBL3301361

>  <Source ID>
27

>  <Source Description>
AstraZeneca Deposited Data

>  <Strongest basic pKa>
7.5

>  <deltapKa>
1.6320208638717695

>  <Strongest basic pKa_Taut>
7.5

>  <deltapKa_TAut>
1.6320208638717695

$$$$

  Mrv1920 03272013312D          

 26 29  0  0  0  0            999 V2000
    4.2624   -3.2300    0.0000 C   0  0  0  0  0  0  0  0  0  0  0  0
    3.4554   -3.4015    0.0000 C   0  0  0  0  0  0  0  0  0  0  0  0
    3.2004   -4.1861    0.0000 C   0  0  0  0  0  0  0  0  0  0  0  0
    2.3935   -4.3576    0.0000 C   0  0  0  0  0  0  0  0  0  0  0  0
    1.8414   -3.7445    0.0000 C   0  0  0  0  0  0  0  0  0  0  0  0
    2.0964   -2.9599    0.0000 C   0  0  0  0  0  0  0  0  0  0  0  0
    2.9034   -2.7884    0.0000 C   0  0  0  0  0  0  0  0  0  0  0  0
    1.4289   -2.4750    0.0000 C   0  0  0  0  0  0  0  0  0  0  0  0
    1.4289   -1.6500    0.0000 C   0  0  0  0  0  0  0  0  0  0  0  0
    0.7145   -1.2375    0.0000 C   0  0  0  0  0  0  0  0  0  0  0  0
    0.7145   -0.4125    0.0000 C   0  0  0  0  0  0  0  0  0  0  0  0
    1.4289    0.0000    0.0000 N   0  0  0  0  0  0  0  0  0  0  0  0
    2.1434   -0.4125    0.0000 C   0  0  0  0  0  0  0  0  0  0  0  0
    2.8579    0.0000    0.0000 C   0  0  0  0  0  0  0  0  0  0  0  0
    2.8579    0.8250    0.0000 Cl  0  0  0  0  0  0  0  0  0  0  0  0
    3.5724   -0.4125    0.0000 C   0  0  0  0  0  0  0  0  0  0  0  0
    3.5724   -1.2375    0.0000 C   0  0  0  0  0  0  0  0  0  0  0  0
    2.8579   -1.6500    0.0000 C   0  0  0  0  0  0  0  0  0  0  0  0
    2.1434   -1.2375    0.0000 C   0  0  0  0  0  0  0  0  0  0  0  0
    0.7615   -2.9599    0.0000 C   0  0  0  0  0  0  0  0  0  0  0  0
   -0.0231   -2.7050    0.0000 C   0  0  0  0  0  0  0  0  0  0  0  0
    1.0164   -3.7445    0.0000 N   0  0  0  0  0  0  0  0  0  0  0  0
    0.5315   -4.4120    0.0000 C   0  0  0  0  0  0  0  0  0  0  0  0
   -0.2890   -4.3257    0.0000 C   0  0  0  0  0  0  0  0  0  0  0  0
   -0.7739   -4.9932    0.0000 O   0  0  0  0  0  0  0  0  0  0  0  0
   -0.6245   -3.5721    0.0000 O   0  0  0  0  0  0  0  0  0  0  0  0
  1  2  1  0  0  0  0
  2  3  2  0  0  0  0
  3  4  1  0  0  0  0
  4  5  2  0  0  0  0
  5  6  1  0  0  0  0
  6  7  2  0  0  0  0
  2  7  1  0  0  0  0
  6  8  1  0  0  0  0
  8  9  1  0  0  0  0
  9 10  2  0  0  0  0
 10 11  1  0  0  0  0
 11 12  2  0  0  0  0
 12 13  1  0  0  0  0
 13 14  2  0  0  0  0
 14 15  1  0  0  0  0
 14 16  1  0  0  0  0
 16 17  2  0  0  0  0
 17 18  1  0  0  0  0
 18 19  2  0  0  0  0
  9 19  1  0  0  0  0
 13 19  1  0  0  0  0
  8 20  2  0  0  0  0
 20 21  1  0  0  0  0
 20 22  1  0  0  0  0
  5 22  1  0  0  0  0
 22 23  1  0  0  0  0
 23 24  1  0  0  0  0
 24 25  2  0  0  0  0
 24 26  1  0  0  0  0
M  END
>  <StandardizerResult>
Tautomerize


>  <CdId>
126

>  <Mol Weight>
364.83

>  <Formula>
C21H17ClN2O2

>  <Molecule ChEMBL ID>
CHEMBL378730

>  <Molecule Max Phase>
0

>  <Molecular Weight>
364.83

>  <#RO5 Violations>
1

>  <AlogP>
5.21

>  <Compound Key>
2464

>  <Standard Type>
pKa_B1

>  <Standard Value>
4.4

>  <Comment>
'B1 Functional Group: Quinoline; Ionisation Formula: A1B1 (Functional Group: the part of the molecule the pKa refers to; Ionisation formula: AxBy where 'A' refers to acidic centers within the molecule that are appreciably ionised at a pH <= 11 and 'x' equals 0, 1 or 2; and 'B' refers to basic centers within the molecule that are appreciably ionised at a pH >= 2 and 'y' equals 0, 1, 2 or 3).'

>  <Potential Duplicate>
false

>  <Assay ChEMBL ID>
CHEMBL3301362

>  <Assay Description>
ASTRAZENECA: Most basic pKa value (pKa B1) determined by absorption and potentiometric titration using standard methodology from Sirius Analytical. Experimental range Bases: >= 2.

>  <Assay Type>
P

>  <BAO Format ID>
BAO_0000100

>  <BAO Label>
small-molecule physicochemical format

>  <Target ChEMBL ID>
CHEMBL2362975

>  <Target Name>
No relevant target

>  <Target Type>
NO TARGET

>  <Document ChEMBL ID>
CHEMBL3301361

>  <Source ID>
27

>  <Source Description>
AstraZeneca Deposited Data

>  <Strongest basic pKa>
2.7

>  <deltapKa>
1.6970280337874297

>  <Strongest basic pKa_Taut>
2.7

>  <deltapKa_TAut>
1.6970280337874297

$$$$

  Mrv1920 03272013312D          

 17 19  0  0  0  0            999 V2000
    3.0332    1.6803    0.0000 N   0  0  0  0  0  0  0  0  0  0  0  0
    3.3912    0.9370    0.0000 C   0  0  0  0  0  0  0  0  0  0  0  0
    4.2162    0.9370    0.0000 N   0  0  0  0  0  0  0  0  0  0  0  0
    4.7305    0.2920    0.0000 C   0  0  0  0  0  0  0  0  0  0  0  0
    5.5189    0.5352    0.0000 C   0  0  0  0  0  0  0  0  0  0  0  0
    6.1237   -0.0260    0.0000 C   0  0  0  0  0  0  0  0  0  0  0  0
    5.9401   -0.8303    0.0000 C   0  0  0  0  0  0  0  0  0  0  0  0
    5.1517   -1.0735    0.0000 C   0  0  0  0  0  0  0  0  0  0  0  0
    4.5470   -0.5123    0.0000 C   0  0  0  0  0  0  0  0  0  0  0  0
    3.8037   -0.8703    0.0000 S   0  0  0  0  0  0  0  0  0  0  0  0
    3.0604   -0.5123    0.0000 C   0  0  0  0  0  0  0  0  0  0  0  0
    2.4556   -1.0735    0.0000 C   0  0  0  0  0  0  0  0  0  0  0  0
    1.6673   -0.8303    0.0000 C   0  0  0  0  0  0  0  0  0  0  0  0
    1.4837   -0.0260    0.0000 C   0  0  0  0  0  0  0  0  0  0  0  0
    2.0884    0.5352    0.0000 C   0  0  0  0  0  0  0  0  0  0  0  0
    1.9049    1.3395    0.0000 F   0  0  0  0  0  0  0  0  0  0  0  0
    2.8768    0.2920    0.0000 C   0  0  0  0  0  0  0  0  0  0  0  0
  1  2  1  0  0  0  0
  2  3  2  0  0  0  0
  3  4  1  0  0  0  0
  4  5  2  0  0  0  0
  5  6  1  0  0  0  0
  6  7  2  0  0  0  0
  7  8  1  0  0  0  0
  8  9  2  0  0  0  0
  4  9  1  0  0  0  0
  9 10  1  0  0  0  0
 10 11  1  0  0  0  0
 11 12  2  0  0  0  0
 12 13  1  0  0  0  0
 13 14  2  0  0  0  0
 14 15  1  0  0  0  0
 15 16  1  0  0  0  0
 15 17  2  0  0  0  0
 11 17  1  0  0  0  0
  2 17  1  0  0  0  0
M  END
>  <StandardizerResult>
Tautomerize


>  <CdId>
124

>  <Mol Weight>
244.29

>  <Formula>
C13H9FN2S

>  <Molecule ChEMBL ID>
CHEMBL1981917

>  <Molecule Max Phase>
0

>  <Molecular Weight>
244.29

>  <#RO5 Violations>
0

>  <AlogP>
3.33

>  <Compound Key>
1578

>  <Standard Type>
pKa_B1

>  <Standard Value>
6.5

>  <Comment>
'B1 Functional Group: Dibenzo[b,f][1,4]thiazepin-11-amine; Ionisation Formula: A0B1 (Functional Group: the part of the molecule the pKa refers to; Ionisation formula: AxBy where 'A' refers to acidic centers within the molecule that are appreciably ionised at a pH <= 11 and 'x' equals 0, 1 or 2; and 'B' refers to basic centers within the molecule that are appreciably ionised at a pH >= 2 and 'y' equals 0, 1, 2 or 3).'

>  <Potential Duplicate>
false

>  <Assay ChEMBL ID>
CHEMBL3301362

>  <Assay Description>
ASTRAZENECA: Most basic pKa value (pKa B1) determined by absorption and potentiometric titration using standard methodology from Sirius Analytical. Experimental range Bases: >= 2.

>  <Assay Type>
P

>  <BAO Format ID>
BAO_0000100

>  <BAO Label>
small-molecule physicochemical format

>  <Target ChEMBL ID>
CHEMBL2362975

>  <Target Name>
No relevant target

>  <Target Type>
NO TARGET

>  <Document ChEMBL ID>
CHEMBL3301361

>  <Source ID>
27

>  <Source Description>
AstraZeneca Deposited Data

>  <Strongest basic pKa>
4.79

>  <deltapKa>
1.7065917015422825

>  <Strongest basic pKa_Taut>
4.79

>  <deltapKa_TAut>
1.7065917015422825

$$$$

  Mrv1920 03272013312D          

 31 36  0  0  0  0            999 V2000
    0.8518   -4.1335    0.0000 O   0  0  0  0  0  0  0  0  0  0  0  0
    0.1373   -3.7210    0.0000 C   0  0  0  0  0  0  0  0  0  0  0  0
    0.1373   -2.8960    0.0000 N   0  0  0  0  0  0  0  0  0  0  0  0
    0.8517   -2.4835    0.0000 C   0  0  0  0  0  0  0  0  0  0  0  0
    0.8517   -1.6585    0.0000 C   0  0  0  0  0  0  0  0  0  0  0  0
    0.1163   -2.0322    0.0000 C   0  0  0  0  0  0  0  0  0  0  0  0
    0.5657   -1.2419    0.0000 C   0  0  0  0  0  0  0  0  0  0  0  0
    0.5657   -0.4945    0.0000 C   0  0  0  0  0  0  0  0  0  0  0  0
    1.3012   -0.1208    0.0000 C   0  0  0  0  0  0  0  0  0  0  0  0
    2.0368   -0.4945    0.0000 C   0  0  0  0  0  0  0  0  0  0  0  0
    2.0368   -1.2419    0.0000 C   0  0  0  0  0  0  0  0  0  0  0  0
    1.3012   -1.6156    0.0000 C   0  0  0  0  0  0  0  0  0  0  0  0
    1.5873   -2.0322    0.0000 C   0  0  0  0  0  0  0  0  0  0  0  0
    0.8517   -0.9111    0.0000 C   0  0  0  0  0  0  0  0  0  0  0  0
   -0.5771   -4.1336    0.0000 C   0  0  0  0  0  0  0  0  0  0  0  0
   -0.5771   -4.9586    0.0000 C   0  0  0  0  0  0  0  0  0  0  0  0
   -1.2915   -5.3711    0.0000 C   0  0  0  0  0  0  0  0  0  0  0  0
   -1.2915   -6.1961    0.0000 C   0  0  0  0  0  0  0  0  0  0  0  0
   -0.5770   -6.6086    0.0000 N   0  0  0  0  0  0  0  0  0  0  0  0
   -0.6846   -7.4265    0.0000 C   0  0  0  0  0  0  0  0  0  0  0  0
   -0.1823   -8.0810    0.0000 C   0  0  0  0  0  0  0  0  0  0  0  0
    0.6356   -8.1887    0.0000 C   0  0  0  0  0  0  0  0  0  0  0  0
    1.2901   -7.6864    0.0000 N   0  0  0  0  0  0  0  0  0  0  0  0
    1.3977   -6.8684    0.0000 C   0  0  0  0  0  0  0  0  0  0  0  0
    0.8955   -6.2140    0.0000 C   0  0  0  0  0  0  0  0  0  0  0  0
    0.0775   -6.1063    0.0000 C   0  0  0  0  0  0  0  0  0  0  0  0
    0.1232   -7.0128    0.0000 O   0  0  0  0  0  0  0  0  0  0  0  0
   -2.0060   -4.9587    0.0000 C   0  0  0  0  0  0  0  0  0  0  0  0
   -2.0060   -4.1337    0.0000 C   0  0  0  0  0  0  0  0  0  0  0  0
   -1.2916   -3.7211    0.0000 C   0  0  0  0  0  0  0  0  0  0  0  0
   -1.2916   -2.8961    0.0000 Cl  0  0  0  0  0  0  0  0  0  0  0  0
  1  2  2  0  0  0  0
  2  3  1  0  0  0  0
  3  4  1  0  0  0  0
  4  5  1  0  0  0  0
  5  6  1  0  0  0  0
  6  7  1  0  0  0  0
  9 14  1  0  0  0  0
  8  9  1  0  0  0  0
  9 10  1  0  0  0  0
  5 13  1  0  0  0  0
 11 12  1  0  0  0  0
  7 12  1  0  0  0  0
 11 13  1  0  0  0  0
 10 11  1  0  0  0  0
  7  8  1  0  0  0  0
  5 14  1  0  0  0  0
  2 15  1  0  0  0  0
 15 16  2  0  0  0  0
 16 17  1  0  0  0  0
 17 18  1  0  0  0  0
 18 19  1  0  0  0  0
 19 20  1  0  0  0  0
 20 21  1  0  0  0  0
 21 22  1  0  0  0  0
 22 23  1  0  0  0  0
 23 24  1  0  0  0  0
 24 25  1  0  0  0  0
 25 26  1  0  0  0  0
 19 26  1  0  0  0  0
 25 27  1  0  0  0  0
 21 27  1  0  0  0  0
 17 28  2  0  0  0  0
 28 29  1  0  0  0  0
 29 30  2  0  0  0  0
 15 30  1  0  0  0  0
 30 31  1  0  0  0  0
M  END
>  <StandardizerResult>
Tautomerize


>  <CdId>
16

>  <Mol Weight>
444.02

>  <Formula>
C25H34ClN3O2

>  <Molecule ChEMBL ID>
CHEMBL235392

>  <Molecule Max Phase>
0

>  <Molecular Weight>
444.02

>  <#RO5 Violations>
0

>  <AlogP>
3.46

>  <Compound Key>
1595

>  <Standard Type>
pKa_B1

>  <Standard Value>
10.0

>  <Comment>
'B1 Functional Group: 9-Oxa-3,7-diazabicyclo[3.3.1]nonane; Ionisation Formula: A0B2 (Functional Group: the part of the molecule the pKa refers to; Ionisation formula: AxBy where 'A' refers to acidic centers within the molecule that are appreciably ionised at a pH <= 11 and 'x' equals 0, 1 or 2; and 'B' refers to basic centers within the molecule that are appreciably ionised at a pH >= 2 and 'y' equals 0, 1, 2 or 3).'

>  <Potential Duplicate>
false

>  <Assay ChEMBL ID>
CHEMBL3301362

>  <Assay Description>
ASTRAZENECA: Most basic pKa value (pKa B1) determined by absorption and potentiometric titration using standard methodology from Sirius Analytical. Experimental range Bases: >= 2.

>  <Assay Type>
P

>  <BAO Format ID>
BAO_0000100

>  <BAO Label>
small-molecule physicochemical format

>  <Target ChEMBL ID>
CHEMBL2362975

>  <Target Name>
No relevant target

>  <Target Type>
NO TARGET

>  <Document ChEMBL ID>
CHEMBL3301361

>  <Source ID>
27

>  <Source Description>
AstraZeneca Deposited Data

>  <Strongest basic pKa>
8.29

>  <deltapKa>
1.7121009991781317

>  <Strongest basic pKa_Taut>
8.29

>  <deltapKa_TAut>
1.7121009991781317

$$$$

  Mrv1920 03272013312D          

 13 14  0  0  0  0            999 V2000
   -0.5837    0.0165    0.0000 C   0  0  0  0  0  0  0  0  0  0  0  0
   -0.1712   -0.6979    0.0000 C   0  0  0  0  0  0  0  0  0  0  0  0
    0.6538   -0.6979    0.0000 C   0  0  0  0  0  0  0  0  0  0  0  0
    1.1387   -0.0305    0.0000 N   0  0  0  0  0  0  0  0  0  0  0  0
    1.9233   -0.2854    0.0000 C   0  0  0  0  0  0  0  0  0  0  0  0
    2.6378    0.1271    0.0000 C   0  0  0  0  0  0  0  0  0  0  0  0
    2.6378    0.9521    0.0000 C   0  0  0  0  0  0  0  0  0  0  0  0
    3.3523   -0.2854    0.0000 C   0  0  0  0  0  0  0  0  0  0  0  0
    3.3523   -1.1104    0.0000 C   0  0  0  0  0  0  0  0  0  0  0  0
    4.0668   -1.5229    0.0000 C   0  0  0  0  0  0  0  0  0  0  0  0
    2.6378   -1.5229    0.0000 N   0  0  0  0  0  0  0  0  0  0  0  0
    1.9233   -1.1104    0.0000 C   0  0  0  0  0  0  0  0  0  0  0  0
    1.1387   -1.3654    0.0000 N   0  0  0  0  0  0  0  0  0  0  0  0
  1  2  1  0  0  0  0
  2  3  1  0  0  0  0
  3  4  1  0  0  0  0
  4  5  1  0  0  0  0
  5  6  2  0  0  0  0
  6  7  1  0  0  0  0
  6  8  1  0  0  0  0
  8  9  2  0  0  0  0
  9 10  1  0  0  0  0
  9 11  1  0  0  0  0
 11 12  2  0  0  0  0
  5 12  1  0  0  0  0
 12 13  1  0  0  0  0
  3 13  2  0  0  0  0
M  END
>  <StandardizerResult>
Tautomerize


>  <CdId>
127

>  <Mol Weight>
175.24

>  <Formula>
C10H13N3

>  <Molecule ChEMBL ID>
CHEMBL221579

>  <Molecule Max Phase>
0

>  <Molecular Weight>
175.24

>  <#RO5 Violations>
0

>  <AlogP>
2.14

>  <Compound Key>
896

>  <Standard Type>
pKa_B1

>  <Standard Value>
5.5

>  <Comment>
'B1 Functional Group: 3H-imidazo[4,5-b]pyridine; Ionisation Formula: A0B1 (Functional Group: the part of the molecule the pKa refers to; Ionisation formula: AxBy where 'A' refers to acidic centers within the molecule that are appreciably ionised at a pH <= 11 and 'x' equals 0, 1 or 2; and 'B' refers to basic centers within the molecule that are appreciably ionised at a pH >= 2 and 'y' equals 0, 1, 2 or 3).'

>  <Potential Duplicate>
false

>  <Assay ChEMBL ID>
CHEMBL3301362

>  <Assay Description>
ASTRAZENECA: Most basic pKa value (pKa B1) determined by absorption and potentiometric titration using standard methodology from Sirius Analytical. Experimental range Bases: >= 2.

>  <Assay Type>
P

>  <BAO Format ID>
BAO_0000100

>  <BAO Label>
small-molecule physicochemical format

>  <Target ChEMBL ID>
CHEMBL2362975

>  <Target Name>
No relevant target

>  <Target Type>
NO TARGET

>  <Document ChEMBL ID>
CHEMBL3301361

>  <Source ID>
27

>  <Source Description>
AstraZeneca Deposited Data

>  <Strongest basic pKa>
3.89

>  <deltapKa>
1.6129829131134117

>  <Strongest basic pKa_Taut>
3.78

>  <deltapKa_TAut>
1.7240482169735531

$$$$

  Mrv1920 03272013312D          

 28 30  0  0  0  0            999 V2000
    3.5724   -2.0625    0.0000 O   0  0  0  0  0  0  0  0  0  0  0  0
    2.8579   -2.4750    0.0000 C   0  0  0  0  0  0  0  0  0  0  0  0
    2.1434   -2.0625    0.0000 O   0  0  0  0  0  0  0  0  0  0  0  0
    2.8579   -3.3000    0.0000 C   0  0  0  0  0  0  0  0  0  0  0  0
    2.1434   -3.7125    0.0000 O   0  0  0  0  0  0  0  0  0  0  0  0
    2.1434   -4.5375    0.0000 C   0  0  0  0  0  0  0  0  0  0  0  0
    2.8579   -4.9500    0.0000 C   0  0  0  0  0  0  0  0  0  0  0  0
    2.8579   -5.7750    0.0000 C   0  0  0  0  0  0  0  0  0  0  0  0
    2.1434   -6.1875    0.0000 C   0  0  0  0  0  0  0  0  0  0  0  0
    2.1434   -7.0125    0.0000 Cl  0  0  0  0  0  0  0  0  0  0  0  0
    1.4289   -5.7750    0.0000 C   0  0  0  0  0  0  0  0  0  0  0  0
    1.4289   -4.9500    0.0000 C   0  0  0  0  0  0  0  0  0  0  0  0
    0.7145   -4.5375    0.0000 C   0  0  0  0  0  0  0  0  0  0  0  0
    0.7145   -3.7125    0.0000 N   0  0  0  0  0  0  0  0  0  0  0  0
    0.0000   -3.3000    0.0000 C   0  0  0  0  0  0  0  0  0  0  0  0
    0.0000   -2.4750    0.0000 C   0  0  0  0  0  0  0  0  0  0  0  0
    0.7145   -2.0625    0.0000 N   0  0  0  0  0  0  0  0  0  0  0  0
    0.7145   -1.2375    0.0000 S   0  0  0  0  0  0  0  0  0  0  0  0
    1.5395   -1.2375    0.0000 O   0  0  0  0  0  0  0  0  0  0  0  0
   -0.1105   -1.2375    0.0000 O   0  0  0  0  0  0  0  0  0  0  0  0
    0.7145   -0.4125    0.0000 C   0  0  0  0  0  0  0  0  0  0  0  0
    0.0000    0.0000    0.0000 C   0  0  0  0  0  0  0  0  0  0  0  0
    0.0000    0.8250    0.0000 C   0  0  0  0  0  0  0  0  0  0  0  0
    0.7145    1.2375    0.0000 C   0  0  0  0  0  0  0  0  0  0  0  0
    1.4289    0.8250    0.0000 C   0  0  0  0  0  0  0  0  0  0  0  0
    1.4289    0.0000    0.0000 C   0  0  0  0  0  0  0  0  0  0  0  0
    1.4289   -2.4750    0.0000 C   0  0  0  0  0  0  0  0  0  0  0  0
    1.4289   -3.3000    0.0000 C   0  0  0  0  0  0  0  0  0  0  0  0
  1  2  2  0  0  0  0
  2  3  1  0  0  0  0
  2  4  1  0  0  0  0
  4  5  1  0  0  0  0
  5  6  1  0  0  0  0
  6  7  2  0  0  0  0
  7  8  1  0  0  0  0
  8  9  2  0  0  0  0
  9 10  1  0  0  0  0
  9 11  1  0  0  0  0
 11 12  2  0  0  0  0
  6 12  1  0  0  0  0
 12 13  1  0  0  0  0
 13 14  1  0  0  0  0
 14 15  1  0  0  0  0
 15 16  1  0  0  0  0
 16 17  1  0  0  0  0
 17 18  1  0  0  0  0
 18 19  2  0  0  0  0
 18 20  2  0  0  0  0
 18 21  1  0  0  0  0
 21 22  2  0  0  0  0
 22 23  1  0  0  0  0
 23 24  2  0  0  0  0
 24 25  1  0  0  0  0
 25 26  2  0  0  0  0
 21 26  1  0  0  0  0
 17 27  1  0  0  0  0
 27 28  1  0  0  0  0
 14 28  1  0  0  0  0
M  END
>  <StandardizerResult>
Tautomerize


>  <CdId>
12

>  <Mol Weight>
424.9

>  <Formula>
C19H21ClN2O5S

>  <Molecule ChEMBL ID>
CHEMBL1689109

>  <Molecule Max Phase>
0

>  <Molecular Weight>
424.91

>  <#RO5 Violations>
0

>  <AlogP>
2.31

>  <Compound Key>
3323

>  <Standard Type>
pKa_B1

>  <Standard Value>
6.8

>  <Comment>
'B1 Functional Group: Piperazine; Ionisation Formula: A1B1 (Functional Group: the part of the molecule the pKa refers to; Ionisation formula: AxBy where 'A' refers to acidic centers within the molecule that are appreciably ionised at a pH <= 11 and 'x' equals 0, 1 or 2; and 'B' refers to basic centers within the molecule that are appreciably ionised at a pH >= 2 and 'y' equals 0, 1, 2 or 3).'

>  <Potential Duplicate>
false

>  <Assay ChEMBL ID>
CHEMBL3301362

>  <Assay Description>
ASTRAZENECA: Most basic pKa value (pKa B1) determined by absorption and potentiometric titration using standard methodology from Sirius Analytical. Experimental range Bases: >= 2.

>  <Assay Type>
P

>  <BAO Format ID>
BAO_0000100

>  <BAO Label>
small-molecule physicochemical format

>  <Target ChEMBL ID>
CHEMBL2362975

>  <Target Name>
No relevant target

>  <Target Type>
NO TARGET

>  <Document ChEMBL ID>
CHEMBL3301361

>  <Source ID>
27

>  <Source Description>
AstraZeneca Deposited Data

>  <Strongest basic pKa>
5.02

>  <deltapKa>
1.7776718669799765

>  <Strongest basic pKa_Taut>
5.02

>  <deltapKa_TAut>
1.7776718669799765

$$$$

  Mrv1920 03272013312D          

 28 31  0  0  0  0            999 V2000
    4.3135    0.3838    0.0000 C   0  0  0  0  0  0  0  0  0  0  0  0
    4.5684   -0.4008    0.0000 O   0  0  0  0  0  0  0  0  0  0  0  0
    4.0164   -1.0139    0.0000 C   0  0  0  0  0  0  0  0  0  0  0  0
    4.2713   -1.7985    0.0000 C   0  0  0  0  0  0  0  0  0  0  0  0
    3.7193   -2.4116    0.0000 C   0  0  0  0  0  0  0  0  0  0  0  0
    2.9123   -2.2401    0.0000 C   0  0  0  0  0  0  0  0  0  0  0  0
    2.3603   -2.8532    0.0000 C   0  0  0  0  0  0  0  0  0  0  0  0
    1.8082   -2.2401    0.0000 C   0  0  0  0  0  0  0  0  0  0  0  0
    1.0013   -2.4116    0.0000 C   0  0  0  0  0  0  0  0  0  0  0  0
    0.4492   -1.7985    0.0000 C   0  0  0  0  0  0  0  0  0  0  0  0
    0.7042   -1.0139    0.0000 C   0  0  0  0  0  0  0  0  0  0  0  0
    1.5112   -0.8423    0.0000 C   0  0  0  0  0  0  0  0  0  0  0  0
    1.7661   -0.0577    0.0000 C   0  0  0  0  0  0  0  0  0  0  0  0
    1.2141    0.5554    0.0000 C   0  0  0  0  0  0  0  0  0  0  0  0
    1.4690    1.3400    0.0000 N   0  0  0  0  0  0  0  0  0  0  0  0
    2.2760    1.5115    0.0000 C   0  0  0  0  0  0  0  0  0  0  0  0
    2.8280    0.8984    0.0000 N   0  0  0  0  0  0  0  0  0  0  0  0
    2.5731    0.1138    0.0000 C   0  0  0  0  0  0  0  0  0  0  0  0
    2.0632   -1.4554    0.0000 C   0  0  0  0  0  0  0  0  0  0  0  0
    3.0277   -3.3381    0.0000 N   0  0  0  0  0  0  0  0  0  0  0  0
    2.7728   -4.1227    0.0000 C   0  0  0  0  0  0  0  0  0  0  0  0
    3.2577   -4.7901    0.0000 C   0  0  0  0  0  0  0  0  0  0  0  0
    1.9478   -4.1227    0.0000 C   0  0  0  0  0  0  0  0  0  0  0  0
    1.4629   -4.7901    0.0000 N   0  0  0  0  0  0  0  0  0  0  0  0
    1.6928   -3.3381    0.0000 N   0  0  0  0  0  0  0  0  0  0  0  0
    2.6574   -1.4554    0.0000 C   0  0  0  0  0  0  0  0  0  0  0  0
    3.2094   -0.8423    0.0000 C   0  0  0  0  0  0  0  0  0  0  0  0
    2.9545   -0.0577    0.0000 C   0  0  0  0  0  0  0  0  0  0  0  0
  1  2  1  0  0  0  0
  2  3  1  0  0  0  0
  3  4  2  0  0  0  0
  4  5  1  0  0  0  0
  5  6  2  0  0  0  0
  6  7  1  0  0  0  0
  7  8  1  0  0  0  0
  8  9  2  0  0  0  0
  9 10  1  0  0  0  0
 10 11  2  0  0  0  0
 11 12  1  0  0  0  0
 12 13  1  0  0  0  0
 13 14  2  0  0  0  0
 14 15  1  0  0  0  0
 15 16  2  0  0  0  0
 16 17  1  0  0  0  0
 17 18  2  0  0  0  0
 13 18  1  0  0  0  0
 12 19  2  0  0  0  0
  8 19  1  0  0  0  0
  7 20  1  0  0  0  0
 20 21  2  0  0  0  0
 21 22  1  0  0  0  0
 21 23  1  0  0  0  0
 23 24  1  0  0  0  0
 23 25  2  0  0  0  0
  7 25  1  0  0  0  0
  6 26  1  0  0  0  0
 26 27  2  0  0  0  0
  3 27  1  0  0  0  0
 27 28  1  0  0  0  0
M  END
>  <StandardizerResult>
Tautomerize


>  <CdId>
153

>  <Mol Weight>
371.44

>  <Formula>
C22H21N5O

>  <Molecule ChEMBL ID>
CHEMBL2180027

>  <Molecule Max Phase>
0

>  <Molecular Weight>
371.44

>  <#RO5 Violations>
0

>  <AlogP>
3.49

>  <Compound Key>
5448

>  <Standard Type>
pKa_B1

>  <Standard Value>
5.83

>  <Comment>
'B1 Functional Group: 2H-imidazol-4-amine, 5-methyl-; Ionisation Formula: A0B1 (Functional Group: the part of the molecule the pKa refers to; Ionisation formula: AxBy where 'A' refers to acidic centers within the molecule that are appreciably ionised at a pH <= 11 and 'x' equals 0, 1 or 2; and 'B' refers to basic centers within the molecule that are appreciably ionised at a pH >= 2 and 'y' equals 0, 1, 2 or 3).'

>  <Potential Duplicate>
false

>  <Assay ChEMBL ID>
CHEMBL3301362

>  <Assay Description>
ASTRAZENECA: Most basic pKa value (pKa B1) determined by absorption and potentiometric titration using standard methodology from Sirius Analytical. Experimental range Bases: >= 2.

>  <Assay Type>
P

>  <BAO Format ID>
BAO_0000100

>  <BAO Label>
small-molecule physicochemical format

>  <Target ChEMBL ID>
CHEMBL2362975

>  <Target Name>
No relevant target

>  <Target Type>
NO TARGET

>  <Document ChEMBL ID>
CHEMBL3301361

>  <Source ID>
27

>  <Source Description>
AstraZeneca Deposited Data

>  <Strongest basic pKa>
4.05

>  <deltapKa>
1.7834173293644646

>  <Strongest basic pKa_Taut>
4.05

>  <deltapKa_TAut>
1.7834173293644646

$$$$

  Mrv1920 03272013312D          

 17 19  0  0  0  0            999 V2000
    1.4289   -2.4750    0.0000 N   0  0  0  0  0  0  0  0  0  0  0  0
    1.4289   -1.6500    0.0000 C   0  0  0  0  0  0  0  0  0  0  0  0
    0.7145   -1.2375    0.0000 N   0  0  0  0  0  0  0  0  0  0  0  0
    0.7145   -0.4125    0.0000 C   0  0  0  0  0  0  0  0  0  0  0  0
    0.0000    0.0000    0.0000 C   0  0  0  0  0  0  0  0  0  0  0  0
   -0.7145   -0.4125    0.0000 C   0  0  0  0  0  0  0  0  0  0  0  0
   -1.4289    0.0000    0.0000 C   0  0  0  0  0  0  0  0  0  0  0  0
   -1.4289    0.8250    0.0000 C   0  0  0  0  0  0  0  0  0  0  0  0
   -0.7145    1.2375    0.0000 C   0  0  0  0  0  0  0  0  0  0  0  0
    0.0000    0.8250    0.0000 C   0  0  0  0  0  0  0  0  0  0  0  0
    1.4289    0.0000    0.0000 N   0  0  0  0  0  0  0  0  0  0  0  0
    2.1434   -0.4125    0.0000 C   0  0  0  0  0  0  0  0  0  0  0  0
    2.8579    0.0000    0.0000 C   0  0  0  0  0  0  0  0  0  0  0  0
    3.5724   -0.4125    0.0000 C   0  0  0  0  0  0  0  0  0  0  0  0
    3.5724   -1.2375    0.0000 C   0  0  0  0  0  0  0  0  0  0  0  0
    2.8579   -1.6500    0.0000 C   0  0  0  0  0  0  0  0  0  0  0  0
    2.1434   -1.2375    0.0000 C   0  0  0  0  0  0  0  0  0  0  0  0
  1  2  1  0  0  0  0
  2  3  2  0  0  0  0
  3  4  1  0  0  0  0
  4  5  1  0  0  0  0
  5  6  2  0  0  0  0
  6  7  1  0  0  0  0
  7  8  2  0  0  0  0
  8  9  1  0  0  0  0
  9 10  2  0  0  0  0
  5 10  1  0  0  0  0
  4 11  1  0  0  0  0
 11 12  1  0  0  0  0
 12 13  2  0  0  0  0
 13 14  1  0  0  0  0
 14 15  2  0  0  0  0
 15 16  1  0  0  0  0
 16 17  2  0  0  0  0
 12 17  1  0  0  0  0
  2 17  1  0  0  0  0
M  END
>  <StandardizerResult>
Tautomerize


>  <CdId>
171

>  <Mol Weight>
223.28

>  <Formula>
C14H13N3

>  <Molecule ChEMBL ID>
CHEMBL174481

>  <Molecule Max Phase>
0

>  <Molecular Weight>
223.28

>  <#RO5 Violations>
0

>  <AlogP>
2.52

>  <Compound Key>
1500

>  <Standard Type>
pKa_B1

>  <Standard Value>
9.83

>  <Comment>
'B1 Functional Group: 4-Quiniazolinamine, 1,2-dihydro-; Ionisation Formula: A0B1 (Functional Group: the part of the molecule the pKa refers to; Ionisation formula: AxBy where 'A' refers to acidic centers within the molecule that are appreciably ionised at a pH <= 11 and 'x' equals 0, 1 or 2; and 'B' refers to basic centers within the molecule that are appreciably ionised at a pH >= 2 and 'y' equals 0, 1, 2 or 3).'

>  <Potential Duplicate>
false

>  <Assay ChEMBL ID>
CHEMBL3301362

>  <Assay Description>
ASTRAZENECA: Most basic pKa value (pKa B1) determined by absorption and potentiometric titration using standard methodology from Sirius Analytical. Experimental range Bases: >= 2.

>  <Assay Type>
P

>  <BAO Format ID>
BAO_0000100

>  <BAO Label>
small-molecule physicochemical format

>  <Target ChEMBL ID>
CHEMBL2362975

>  <Target Name>
No relevant target

>  <Target Type>
NO TARGET

>  <Document ChEMBL ID>
CHEMBL3301361

>  <Source ID>
27

>  <Source Description>
AstraZeneca Deposited Data

>  <Strongest basic pKa>
8.03

>  <deltapKa>
1.8003338477520643

>  <Strongest basic pKa_Taut>
8.03

>  <deltapKa_TAut>
1.8003338477520643

$$$$

  Mrv1920 03272013312D          

 22 24  0  0  0  0            999 V2000
    6.5492    2.5922    0.0000 C   0  0  0  0  0  0  0  0  0  0  0  0
    6.3204    1.7996    0.0000 C   0  0  0  0  0  0  0  0  0  0  0  0
    5.5196    1.6015    0.0000 O   0  0  0  0  0  0  0  0  0  0  0  0
    5.2907    0.8088    0.0000 C   0  0  0  0  0  0  0  0  0  0  0  0
    5.8628    0.2143    0.0000 O   0  0  0  0  0  0  0  0  0  0  0  0
    4.4899    0.6107    0.0000 N   0  0  0  0  0  0  0  0  0  0  0  0
    4.2611   -0.1820    0.0000 C   0  0  0  0  0  0  0  0  0  0  0  0
    3.4602   -0.3801    0.0000 C   0  0  0  0  0  0  0  0  0  0  0  0
    2.8882    0.2143    0.0000 C   0  0  0  0  0  0  0  0  0  0  0  0
    3.1170    1.0070    0.0000 C   0  0  0  0  0  0  0  0  0  0  0  0
    3.9179    1.2051    0.0000 C   0  0  0  0  0  0  0  0  0  0  0  0
    2.6594   -0.5783    0.0000 N   0  0  0  0  0  0  0  0  0  0  0  0
    1.8585   -0.7765    0.0000 C   0  0  0  0  0  0  0  0  0  0  0  0
    1.6297   -1.5691    0.0000 N   0  0  0  0  0  0  0  0  0  0  0  0
    1.2865   -0.1820    0.0000 C   0  0  0  0  0  0  0  0  0  0  0  0
    0.4857   -0.3801    0.0000 C   0  0  0  0  0  0  0  0  0  0  0  0
    0.2568   -1.1728    0.0000 Cl  0  0  0  0  0  0  0  0  0  0  0  0
   -0.0864    0.2143    0.0000 C   0  0  0  0  0  0  0  0  0  0  0  0
    0.1424    1.0070    0.0000 C   0  0  0  0  0  0  0  0  0  0  0  0
    0.9433    1.2051    0.0000 C   0  0  0  0  0  0  0  0  0  0  0  0
    1.5153    0.6107    0.0000 C   0  0  0  0  0  0  0  0  0  0  0  0
    2.3162    0.8088    0.0000 N   0  0  0  0  0  0  0  0  0  0  0  0
  1  2  1  0  0  0  0
  2  3  1  0  0  0  0
  3  4  1  0  0  0  0
  4  5  2  0  0  0  0
  4  6  1  0  0  0  0
  6  7  1  0  0  0  0
  7  8  1  0  0  0  0
  8  9  1  0  0  0  0
  9 10  1  0  0  0  0
 10 11  1  0  0  0  0
  6 11  1  0  0  0  0
  9 12  1  0  0  0  0
 12 13  2  0  0  0  0
 13 14  1  0  0  0  0
 13 15  1  0  0  0  0
 15 16  2  0  0  0  0
 16 17  1  0  0  0  0
 16 18  1  0  0  0  0
 18 19  2  0  0  0  0
 19 20  1  0  0  0  0
 20 21  2  0  0  0  0
 15 21  1  0  0  0  0
 21 22  1  0  0  0  0
  9 22  1  0  0  0  0
M  END
>  <StandardizerResult>
Tautomerize


>  <CdId>
21

>  <Mol Weight>
322.79

>  <Formula>
C15H19ClN4O2

>  <Molecule ChEMBL ID>
CHEMBL366978

>  <Molecule Max Phase>
0

>  <Molecular Weight>
322.8

>  <#RO5 Violations>
0

>  <AlogP>
2.42

>  <Compound Key>
2299

>  <Standard Type>
pKa_B1

>  <Standard Value>
9.0

>  <Comment>
'B1 Functional Group: 1,2-Dihydroquinazolin-4-amine; Ionisation Formula: A0B1 (Functional Group: the part of the molecule the pKa refers to; Ionisation formula: AxBy where 'A' refers to acidic centers within the molecule that are appreciably ionised at a pH <= 11 and 'x' equals 0, 1 or 2; and 'B' refers to basic centers within the molecule that are appreciably ionised at a pH >= 2 and 'y' equals 0, 1, 2 or 3).'

>  <Potential Duplicate>
false

>  <Assay ChEMBL ID>
CHEMBL3301362

>  <Assay Description>
ASTRAZENECA: Most basic pKa value (pKa B1) determined by absorption and potentiometric titration using standard methodology from Sirius Analytical. Experimental range Bases: >= 2.

>  <Assay Type>
P

>  <BAO Format ID>
BAO_0000100

>  <BAO Label>
small-molecule physicochemical format

>  <Target ChEMBL ID>
CHEMBL2362975

>  <Target Name>
No relevant target

>  <Target Type>
NO TARGET

>  <Document ChEMBL ID>
CHEMBL3301361

>  <Source ID>
27

>  <Source Description>
AstraZeneca Deposited Data

>  <Strongest basic pKa>
7.13

>  <deltapKa>
1.8744699517606271

>  <Strongest basic pKa_Taut>
7.13

>  <deltapKa_TAut>
1.8744699517606271

$$$$

  Mrv1920 03272013312D          

 30 32  0  0  0  0            999 V2000
    0.3137    1.4950    0.0000 O   0  0  0  0  0  0  0  0  0  0  0  0
   -0.4008    1.0825    0.0000 C   0  0  0  0  0  0  0  0  0  0  0  0
   -1.1153    1.4950    0.0000 O   0  0  0  0  0  0  0  0  0  0  0  0
   -0.4008    0.2575    0.0000 C   0  0  0  0  0  0  0  0  0  0  0  0
   -1.1153   -0.1550    0.0000 O   0  0  0  0  0  0  0  0  0  0  0  0
   -1.1153   -0.9800    0.0000 C   0  0  0  0  0  0  0  0  0  0  0  0
   -0.4008   -1.3925    0.0000 C   0  0  0  0  0  0  0  0  0  0  0  0
   -0.4008   -2.2175    0.0000 C   0  0  0  0  0  0  0  0  0  0  0  0
   -1.1153   -2.6300    0.0000 C   0  0  0  0  0  0  0  0  0  0  0  0
   -1.1153   -3.4550    0.0000 Cl  0  0  0  0  0  0  0  0  0  0  0  0
   -1.8297   -2.2175    0.0000 C   0  0  0  0  0  0  0  0  0  0  0  0
   -1.8297   -1.3925    0.0000 C   0  0  0  0  0  0  0  0  0  0  0  0
   -2.5442   -0.9800    0.0000 C   0  0  0  0  0  0  0  0  0  0  0  0
   -3.2587   -1.3925    0.0000 N   0  0  0  0  0  0  0  0  0  0  0  0
   -3.1970   -2.2152    0.0000 C   0  0  0  0  0  0  0  0  0  0  0  0
   -3.8018   -2.7764    0.0000 C   0  0  0  0  0  0  0  0  0  0  0  0
   -4.6176   -2.6534    0.0000 C   0  0  0  0  0  0  0  0  0  0  0  0
   -5.0301   -1.9389    0.0000 N   0  0  0  0  0  0  0  0  0  0  0  0
   -5.8528   -2.0006    0.0000 S   0  0  0  0  0  0  0  0  0  0  0  0
   -5.9144   -1.1779    0.0000 O   0  0  0  0  0  0  0  0  0  0  0  0
   -5.7911   -2.8233    0.0000 O   0  0  0  0  0  0  0  0  0  0  0  0
   -6.6755   -2.0623    0.0000 C   0  0  0  0  0  0  0  0  0  0  0  0
   -7.0334   -2.8055    0.0000 C   0  0  0  0  0  0  0  0  0  0  0  0
   -6.5687   -3.4872    0.0000 C   0  0  0  0  0  0  0  0  0  0  0  0
   -6.9266   -4.2305    0.0000 C   0  0  0  0  0  0  0  0  0  0  0  0
   -7.7493   -4.2921    0.0000 C   0  0  0  0  0  0  0  0  0  0  0  0
   -8.2141   -3.6105    0.0000 C   0  0  0  0  0  0  0  0  0  0  0  0
   -7.8561   -2.8672    0.0000 C   0  0  0  0  0  0  0  0  0  0  0  0
   -4.7287   -1.1710    0.0000 C   0  0  0  0  0  0  0  0  0  0  0  0
   -3.9403   -0.9278    0.0000 C   0  0  0  0  0  0  0  0  0  0  0  0
  1  2  2  0  0  0  0
  2  3  1  0  0  0  0
  2  4  1  0  0  0  0
  4  5  1  0  0  0  0
  5  6  1  0  0  0  0
  6  7  2  0  0  0  0
  7  8  1  0  0  0  0
  8  9  2  0  0  0  0
  9 10  1  0  0  0  0
  9 11  1  0  0  0  0
 11 12  2  0  0  0  0
  6 12  1  0  0  0  0
 12 13  1  0  0  0  0
 13 14  1  0  0  0  0
 14 15  1  0  0  0  0
 15 16  1  0  0  0  0
 16 17  1  0  0  0  0
 17 18  1  0  0  0  0
 18 19  1  0  0  0  0
 19 20  2  0  0  0  0
 19 21  2  0  0  0  0
 19 22  1  0  0  0  0
 22 23  1  0  0  0  0
 23 24  2  0  0  0  0
 24 25  1  0  0  0  0
 25 26  2  0  0  0  0
 26 27  1  0  0  0  0
 27 28  2  0  0  0  0
 23 28  1  0  0  0  0
 18 29  1  0  0  0  0
 29 30  1  0  0  0  0
 14 30  1  0  0  0  0
M  END
>  <StandardizerResult>
Tautomerize


>  <CdId>
68

>  <Mol Weight>
452.95

>  <Formula>
C21H25ClN2O5S

>  <Molecule ChEMBL ID>
CHEMBL1689115

>  <Molecule Max Phase>
0

>  <Molecular Weight>
452.96

>  <#RO5 Violations>
0

>  <AlogP>
2.84

>  <Compound Key>
3483

>  <Standard Type>
pKa_B1

>  <Standard Value>
8.3

>  <Comment>
'B1 Functional Group: 1,4-Diazepane; Ionisation Formula: A1B1 (Functional Group: the part of the molecule the pKa refers to; Ionisation formula: AxBy where 'A' refers to acidic centers within the molecule that are appreciably ionised at a pH <= 11 and 'x' equals 0, 1 or 2; and 'B' refers to basic centers within the molecule that are appreciably ionised at a pH >= 2 and 'y' equals 0, 1, 2 or 3).'

>  <Potential Duplicate>
false

>  <Assay ChEMBL ID>
CHEMBL3301362

>  <Assay Description>
ASTRAZENECA: Most basic pKa value (pKa B1) determined by absorption and potentiometric titration using standard methodology from Sirius Analytical. Experimental range Bases: >= 2.

>  <Assay Type>
P

>  <BAO Format ID>
BAO_0000100

>  <BAO Label>
small-molecule physicochemical format

>  <Target ChEMBL ID>
CHEMBL2362975

>  <Target Name>
No relevant target

>  <Target Type>
NO TARGET

>  <Document ChEMBL ID>
CHEMBL3301361

>  <Source ID>
27

>  <Source Description>
AstraZeneca Deposited Data

>  <Strongest basic pKa>
6.2

>  <deltapKa>
2.095890040134874

>  <Strongest basic pKa_Taut>
6.2

>  <deltapKa_TAut>
2.095890040134874

$$$$

  Mrv1920 03272013312D          

 33 37  0  0  0  0            999 V2000
    0.0000    0.0000    0.0000 C   0  0  0  0  0  0  0  0  0  0  0  0
    0.7145   -0.4125    0.0000 C   0  0  0  0  0  0  0  0  0  0  0  0
    1.4289    0.0000    0.0000 C   0  0  0  0  0  0  0  0  0  0  0  0
    0.7145   -1.2375    0.0000 N   0  0  0  0  0  0  0  0  0  0  0  0
    1.4289   -1.6500    0.0000 C   0  0  0  0  0  0  0  0  0  0  0  0
    2.1434   -1.2375    0.0000 C   0  0  0  0  0  0  0  0  0  0  0  0
    2.8579   -1.6500    0.0000 C   0  0  0  0  0  0  0  0  0  0  0  0
    3.5724   -1.2375    0.0000 N   0  0  0  0  0  0  0  0  0  0  0  0
    3.5724   -0.4125    0.0000 C   0  0  0  0  0  0  0  0  0  0  0  0
    2.8579    0.0000    0.0000 C   0  0  0  0  0  0  0  0  0  0  0  0
    2.8579    0.8250    0.0000 C   0  0  0  0  0  0  0  0  0  0  0  0
    3.5724    1.2375    0.0000 C   0  0  0  0  0  0  0  0  0  0  0  0
    3.5724    2.0625    0.0000 Cl  0  0  0  0  0  0  0  0  0  0  0  0
    4.2868    0.8250    0.0000 C   0  0  0  0  0  0  0  0  0  0  0  0
    4.2868    0.0000    0.0000 C   0  0  0  0  0  0  0  0  0  0  0  0
    4.2868   -1.6500    0.0000 C   0  0  0  0  0  0  0  0  0  0  0  0
    5.0013   -1.2375    0.0000 C   0  0  0  0  0  0  0  0  0  0  0  0
    5.7158   -1.6500    0.0000 C   0  0  0  0  0  0  0  0  0  0  0  0
    5.7158   -2.4750    0.0000 C   0  0  0  0  0  0  0  0  0  0  0  0
    5.0013   -2.8875    0.0000 C   0  0  0  0  0  0  0  0  0  0  0  0
    4.2868   -2.4750    0.0000 C   0  0  0  0  0  0  0  0  0  0  0  0
    3.5724   -2.8875    0.0000 N   0  0  0  0  0  0  0  0  0  0  0  0
    2.8579   -2.4750    0.0000 C   0  0  0  0  0  0  0  0  0  0  0  0
    2.1434   -2.8875    0.0000 C   0  0  0  0  0  0  0  0  0  0  0  0
    1.4289   -2.4750    0.0000 C   0  0  0  0  0  0  0  0  0  0  0  0
    0.7145   -2.8875    0.0000 N   0  0  0  0  0  0  0  0  0  0  0  0
    0.0000   -2.4750    0.0000 C   0  0  0  0  0  0  0  0  0  0  0  0
   -0.7145   -2.8875    0.0000 C   0  0  0  0  0  0  0  0  0  0  0  0
   -1.4289   -2.4750    0.0000 C   0  0  0  0  0  0  0  0  0  0  0  0
   -1.4289   -1.6500    0.0000 C   0  0  0  0  0  0  0  0  0  0  0  0
   -2.1434   -1.2375    0.0000 Cl  0  0  0  0  0  0  0  0  0  0  0  0
   -0.7145   -1.2375    0.0000 C   0  0  0  0  0  0  0  0  0  0  0  0
    0.0000   -1.6500    0.0000 C   0  0  0  0  0  0  0  0  0  0  0  0
  1  2  1  0  0  0  0
  2  3  1  0  0  0  0
  4  2  1  4  0  0  0
  4  5  2  0  0  0  0
  5  6  1  0  0  0  0
  6  7  2  0  0  0  0
  7  8  1  0  0  0  0
  8  9  1  0  0  0  0
  9 10  2  0  0  0  0
 10 11  1  0  0  0  0
 11 12  2  0  0  0  0
 12 13  1  0  0  0  0
 12 14  1  0  0  0  0
 14 15  2  0  0  0  0
  9 15  1  0  0  0  0
  8 16  1  0  0  0  0
 16 17  2  0  0  0  0
 17 18  1  0  0  0  0
 18 19  2  0  0  0  0
 19 20  1  0  0  0  0
 20 21  2  0  0  0  0
 16 21  1  0  0  0  0
 21 22  1  0  0  0  0
 22 23  2  0  0  0  0
  7 23  1  0  0  0  0
 23 24  1  0  0  0  0
 24 25  2  0  0  0  0
  5 25  1  0  0  0  0
 25 26  1  0  0  0  0
 26 27  1  0  0  0  0
 27 28  2  0  0  0  0
 28 29  1  0  0  0  0
 29 30  2  0  0  0  0
 30 31  1  0  0  0  0
 30 32  1  0  0  0  0
 32 33  2  0  0  0  0
 27 33  1  0  0  0  0
M  END
>  <StandardizerResult>
Tautomerize


>  <CdId>
198

>  <Mol Weight>
473.4

>  <Formula>
C27H22Cl2N4

>  <Molecule ChEMBL ID>
CHEMBL1369407

>  <Molecule Max Phase>
0

>  <Molecular Weight>
473.41

>  <#RO5 Violations>
1

>  <AlogP>
7.49

>  <Compound Key>
1336

>  <Standard Type>
pKa_B1

>  <Standard Value>
8.8

>  <Comment>
'B1 Functional Group: (3E)-3-(methylimino)-3,5-dihydrophenazin-2-amine; Ionisation Formula: A0B1 (Functional Group: the part of the molecule the pKa refers to; Ionisation formula: AxBy where 'A' refers to acidic centers within the molecule that are appreciably ionised at a pH <= 11 and 'x' equals 0, 1 or 2; and 'B' refers to basic centers within the molecule that are appreciably ionised at a pH >= 2 and 'y' equals 0, 1, 2 or 3).'

>  <Potential Duplicate>
false

>  <Assay ChEMBL ID>
CHEMBL3301362

>  <Assay Description>
ASTRAZENECA: Most basic pKa value (pKa B1) determined by absorption and potentiometric titration using standard methodology from Sirius Analytical. Experimental range Bases: >= 2.

>  <Assay Type>
P

>  <BAO Format ID>
BAO_0000100

>  <BAO Label>
small-molecule physicochemical format

>  <Target ChEMBL ID>
CHEMBL2362975

>  <Target Name>
No relevant target

>  <Target Type>
NO TARGET

>  <Document ChEMBL ID>
CHEMBL3301361

>  <Source ID>
27

>  <Source Description>
AstraZeneca Deposited Data

>  <Strongest basic pKa>
6.63

>  <deltapKa>
2.1666261476154407

>  <Strongest basic pKa_Taut>
6.63

>  <deltapKa_TAut>
2.1666261476154407

$$$$

  Mrv1920 03272013312D          

 23 25  0  0  0  0            999 V2000
   -0.7418   -1.2839    0.0000 C   0  0  0  0  0  0  0  0  0  0  0  0
   -0.0148   -1.6739    0.0000 C   0  0  0  0  0  0  0  0  0  0  0  0
    0.6864   -1.2393    0.0000 O   0  0  0  0  0  0  0  0  0  0  0  0
    1.4134   -1.6293    0.0000 C   0  0  0  0  0  0  0  0  0  0  0  0
    2.1147   -1.1947    0.0000 C   0  0  0  0  0  0  0  0  0  0  0  0
    2.1752   -0.3719    0.0000 N   0  0  0  0  0  0  0  0  0  0  0  0
    2.9765   -0.1753    0.0000 C   0  0  0  0  0  0  0  0  0  0  0  0
    3.3664    0.5517    0.0000 C   0  0  0  0  0  0  0  0  0  0  0  0
    2.9318    1.2530    0.0000 N   0  0  0  0  0  0  0  0  0  0  0  0
    4.1910    0.5775    0.0000 N   0  0  0  0  0  0  0  0  0  0  0  0
    4.6256   -0.1238    0.0000 C   0  0  0  0  0  0  0  0  0  0  0  0
    5.4502   -0.0980    0.0000 C   0  0  0  0  0  0  0  0  0  0  0  0
    5.8849   -0.7992    0.0000 C   0  0  0  0  0  0  0  0  0  0  0  0
    5.4949   -1.5262    0.0000 C   0  0  0  0  0  0  0  0  0  0  0  0
    4.6703   -1.5520    0.0000 C   0  0  0  0  0  0  0  0  0  0  0  0
    4.2357   -0.8508    0.0000 C   0  0  0  0  0  0  0  0  0  0  0  0
    3.4111   -0.8765    0.0000 C   0  0  0  0  0  0  0  0  0  0  0  0
    2.8784   -1.5066    0.0000 N   0  0  0  0  0  0  0  0  0  0  0  0
    3.0751   -2.3078    0.0000 C   0  0  0  0  0  0  0  0  0  0  0  0
    2.4795   -2.8787    0.0000 C   0  0  0  0  0  0  0  0  0  0  0  0
    1.9086   -2.2831    0.0000 C   0  0  0  0  0  0  0  0  0  0  0  0
    3.0504   -3.4742    0.0000 C   0  0  0  0  0  0  0  0  0  0  0  0
    1.8840   -3.4496    0.0000 O   0  0  0  0  0  0  0  0  0  0  0  0
  1  2  1  0  0  0  0
  2  3  1  0  0  0  0
  3  4  1  0  0  0  0
  4  5  1  0  0  0  0
  5  6  2  0  0  0  0
  6  7  1  0  0  0  0
  7  8  1  0  0  0  0
  8  9  1  0  0  0  0
  8 10  2  0  0  0  0
 10 11  1  0  0  0  0
 11 12  1  0  0  0  0
 12 13  2  0  0  0  0
 13 14  1  0  0  0  0
 14 15  2  0  0  0  0
 15 16  1  0  0  0  0
 11 16  2  0  0  0  0
 16 17  1  0  0  0  0
  7 17  2  0  0  0  0
 17 18  1  0  0  0  0
  5 18  1  0  0  0  0
 18 19  1  0  0  0  0
 19 20  1  0  0  0  0
 20 21  1  0  0  0  0
 20 22  1  0  0  0  0
 20 23  1  0  0  0  0
M  END
>  <StandardizerResult>
Tautomerize


>  <CdId>
70

>  <Mol Weight>
314.39

>  <Formula>
C17H22N4O2

>  <Molecule ChEMBL ID>
CHEMBL383322

>  <Molecule Name>
RESIQUIMOD

>  <Molecule Max Phase>
2

>  <Molecular Weight>
314.39

>  <#RO5 Violations>
0

>  <AlogP>
2.47

>  <Compound Key>
1653

>  <Standard Type>
pKa_B1

>  <Standard Value>
7.1

>  <Comment>
'B1 Functional Group: 3H-imidazo[4,5-c]quinolin-4-amine; Ionisation Formula: A0B1 (Functional Group: the part of the molecule the pKa refers to; Ionisation formula: AxBy where 'A' refers to acidic centers within the molecule that are appreciably ionised at a pH <= 11 and 'x' equals 0, 1 or 2; and 'B' refers to basic centers within the molecule that are appreciably ionised at a pH >= 2 and 'y' equals 0, 1, 2 or 3).'

>  <Potential Duplicate>
false

>  <Assay ChEMBL ID>
CHEMBL3301362

>  <Assay Description>
ASTRAZENECA: Most basic pKa value (pKa B1) determined by absorption and potentiometric titration using standard methodology from Sirius Analytical. Experimental range Bases: >= 2.

>  <Assay Type>
P

>  <BAO Format ID>
BAO_0000100

>  <BAO Label>
small-molecule physicochemical format

>  <Target ChEMBL ID>
CHEMBL2362975

>  <Target Name>
No relevant target

>  <Target Type>
NO TARGET

>  <Document ChEMBL ID>
CHEMBL3301361

>  <Source ID>
27

>  <Source Description>
AstraZeneca Deposited Data

>  <Strongest basic pKa>
4.83

>  <deltapKa>
2.270078065936956

>  <Strongest basic pKa_Taut>
4.83

>  <deltapKa_TAut>
2.270078065936956

$$$$

  Mrv1920 03272013312D          

 26 28  0  0  0  0            999 V2000
    1.4289    3.3000    0.0000 C   0  0  0  0  0  0  0  0  0  0  0  0
    1.4289    2.4750    0.0000 C   0  0  0  0  0  0  0  0  0  0  0  0
    2.1434    2.0625    0.0000 C   0  0  0  0  0  0  0  0  0  0  0  0
    2.1434    1.2375    0.0000 C   0  0  0  0  0  0  0  0  0  0  0  0
    2.8579    0.8250    0.0000 C   0  0  0  0  0  0  0  0  0  0  0  0
    3.5724    1.2375    0.0000 N   0  0  0  0  0  0  0  0  0  0  0  0
    4.2868    0.8250    0.0000 C   0  0  0  0  0  0  0  0  0  0  0  0
    5.0013    1.2375    0.0000 C   0  0  0  0  0  0  0  0  0  0  0  0
    5.7158    0.8250    0.0000 O   0  0  0  0  0  0  0  0  0  0  0  0
    5.0013    2.0625    0.0000 O   0  0  0  0  0  0  0  0  0  0  0  0
    4.2868    0.0000    0.0000 C   0  0  0  0  0  0  0  0  0  0  0  0
    3.5724   -0.4125    0.0000 C   0  0  0  0  0  0  0  0  0  0  0  0
    3.5724   -1.2375    0.0000 N   0  0  0  0  0  0  0  0  0  0  0  0
    2.8579   -1.6500    0.0000 C   0  0  0  0  0  0  0  0  0  0  0  0
    2.8579    0.0000    0.0000 C   0  0  0  0  0  0  0  0  0  0  0  0
    2.1434   -0.4125    0.0000 C   0  0  0  0  0  0  0  0  0  0  0  0
    1.4289    0.0000    0.0000 C   0  0  0  0  0  0  0  0  0  0  0  0
    0.7145   -0.4125    0.0000 C   0  0  0  0  0  0  0  0  0  0  0  0
    0.7145   -1.2375    0.0000 O   0  0  0  0  0  0  0  0  0  0  0  0
    0.0000    0.0000    0.0000 C   0  0  0  0  0  0  0  0  0  0  0  0
    0.0000    0.8250    0.0000 C   0  0  0  0  0  0  0  0  0  0  0  0
   -0.7145    1.2375    0.0000 C   0  0  0  0  0  0  0  0  0  0  0  0
   -1.4289    0.8250    0.0000 O   0  0  0  0  0  0  0  0  0  0  0  0
   -0.7145    2.0625    0.0000 O   0  0  0  0  0  0  0  0  0  0  0  0
    0.7145    1.2375    0.0000 O   0  0  0  0  0  0  0  0  0  0  0  0
    1.4289    0.8250    0.0000 C   0  0  0  0  0  0  0  0  0  0  0  0
  1  2  1  0  0  0  0
  2  3  1  0  0  0  0
  3  4  1  0  0  0  0
  4  5  1  0  0  0  0
  5  6  2  0  0  0  0
  6  7  1  0  0  0  0
  7  8  1  0  0  0  0
  8  9  2  0  0  0  0
  8 10  1  0  0  0  0
  7 11  2  0  0  0  0
 11 12  1  0  0  0  0
 12 13  1  0  0  0  0
 13 14  1  0  0  0  0
 12 15  2  0  0  0  0
  5 15  1  0  0  0  0
 15 16  1  0  0  0  0
 16 17  2  0  0  0  0
 17 18  1  0  0  0  0
 18 19  2  0  0  0  0
 18 20  1  0  0  0  0
 20 21  2  0  0  0  0
 21 22  1  0  0  0  0
 22 23  2  0  0  0  0
 22 24  1  0  0  0  0
 21 25  1  0  0  0  0
 25 26  1  0  0  0  0
  4 26  2  0  0  0  0
 17 26  1  0  0  0  0
M  END
>  <StandardizerResult>
Tautomerize


>  <CdId>
116

>  <Mol Weight>
356.33

>  <Formula>
C18H16N2O6

>  <Molecule ChEMBL ID>
CHEMBL1207579

>  <Molecule Name>
MINOCROMIL

>  <Molecule Max Phase>
0

>  <Molecular Weight>
356.33

>  <#RO5 Violations>
0

>  <AlogP>
2.73

>  <Compound Key>
1432

>  <Standard Type>
pKa_B1

>  <Standard Value>
8.8

>  <Comment>
'B1 Functional Group: N-methylquinolin-4-amine; Ionisation Formula: A2B1 (Functional Group: the part of the molecule the pKa refers to; Ionisation formula: AxBy where 'A' refers to acidic centers within the molecule that are appreciably ionised at a pH <= 11 and 'x' equals 0, 1 or 2; and 'B' refers to basic centers within the molecule that are appreciably ionised at a pH >= 2 and 'y' equals 0, 1, 2 or 3).'

>  <Potential Duplicate>
false

>  <Assay ChEMBL ID>
CHEMBL3301362

>  <Assay Description>
ASTRAZENECA: Most basic pKa value (pKa B1) determined by absorption and potentiometric titration using standard methodology from Sirius Analytical. Experimental range Bases: >= 2.

>  <Assay Type>
P

>  <BAO Format ID>
BAO_0000100

>  <BAO Label>
small-molecule physicochemical format

>  <Target ChEMBL ID>
CHEMBL2362975

>  <Target Name>
No relevant target

>  <Target Type>
NO TARGET

>  <Document ChEMBL ID>
CHEMBL3301361

>  <Source ID>
27

>  <Source Description>
AstraZeneca Deposited Data

>  <Strongest basic pKa>
6.52

>  <deltapKa>
2.283918687940348

>  <Strongest basic pKa_Taut>
6.52

>  <deltapKa_TAut>
2.283918687940348

$$$$

  Mrv1920 03272013312D          

 28 30  0  0  0  0            999 V2000
    3.5724   -2.0625    0.0000 O   0  0  0  0  0  0  0  0  0  0  0  0
    2.8579   -2.4750    0.0000 C   0  0  0  0  0  0  0  0  0  0  0  0
    2.1434   -2.0625    0.0000 O   0  0  0  0  0  0  0  0  0  0  0  0
    2.8579   -3.3000    0.0000 C   0  0  0  0  0  0  0  0  0  0  0  0
    2.1434   -3.7125    0.0000 O   0  0  0  0  0  0  0  0  0  0  0  0
    2.1434   -4.5375    0.0000 C   0  0  0  0  0  0  0  0  0  0  0  0
    2.8579   -4.9500    0.0000 C   0  0  0  0  0  0  0  0  0  0  0  0
    2.8579   -5.7750    0.0000 C   0  0  0  0  0  0  0  0  0  0  0  0
    2.1434   -6.1875    0.0000 C   0  0  0  0  0  0  0  0  0  0  0  0
    2.1434   -7.0125    0.0000 Cl  0  0  0  0  0  0  0  0  0  0  0  0
    1.4289   -5.7750    0.0000 C   0  0  0  0  0  0  0  0  0  0  0  0
    1.4289   -4.9500    0.0000 C   0  0  0  0  0  0  0  0  0  0  0  0
    0.7145   -4.5375    0.0000 C   0  0  0  0  0  0  0  0  0  0  0  0
    0.7145   -3.7125    0.0000 N   0  0  0  0  0  0  0  0  0  0  0  0
    0.0000   -3.3000    0.0000 C   0  0  0  0  0  0  0  0  0  0  0  0
    0.0000   -2.4750    0.0000 C   0  0  0  0  0  0  0  0  0  0  0  0
    0.7145   -2.0625    0.0000 C   0  0  0  0  0  0  0  0  0  0  0  0
    0.7145   -1.2375    0.0000 S   0  0  0  0  0  0  0  0  0  0  0  0
    1.5395   -1.2375    0.0000 O   0  0  0  0  0  0  0  0  0  0  0  0
   -0.1105   -1.2375    0.0000 O   0  0  0  0  0  0  0  0  0  0  0  0
    0.7145   -0.4125    0.0000 C   0  0  0  0  0  0  0  0  0  0  0  0
    0.0000    0.0000    0.0000 C   0  0  0  0  0  0  0  0  0  0  0  0
    0.0000    0.8250    0.0000 C   0  0  0  0  0  0  0  0  0  0  0  0
    0.7145    1.2375    0.0000 C   0  0  0  0  0  0  0  0  0  0  0  0
    1.4289    0.8250    0.0000 C   0  0  0  0  0  0  0  0  0  0  0  0
    1.4289    0.0000    0.0000 C   0  0  0  0  0  0  0  0  0  0  0  0
    1.4289   -2.4750    0.0000 C   0  0  0  0  0  0  0  0  0  0  0  0
    1.4289   -3.3000    0.0000 C   0  0  0  0  0  0  0  0  0  0  0  0
  1  2  2  0  0  0  0
  2  3  1  0  0  0  0
  2  4  1  0  0  0  0
  4  5  1  0  0  0  0
  5  6  1  0  0  0  0
  6  7  2  0  0  0  0
  7  8  1  0  0  0  0
  8  9  2  0  0  0  0
  9 10  1  0  0  0  0
  9 11  1  0  0  0  0
 11 12  2  0  0  0  0
  6 12  1  0  0  0  0
 12 13  1  0  0  0  0
 13 14  1  0  0  0  0
 14 15  1  0  0  0  0
 15 16  1  0  0  0  0
 16 17  1  0  0  0  0
 17 18  1  0  0  0  0
 18 19  2  0  0  0  0
 18 20  2  0  0  0  0
 18 21  1  0  0  0  0
 21 22  2  0  0  0  0
 22 23  1  0  0  0  0
 23 24  2  0  0  0  0
 24 25  1  0  0  0  0
 25 26  2  0  0  0  0
 21 26  1  0  0  0  0
 17 27  1  0  0  0  0
 27 28  1  0  0  0  0
 14 28  1  0  0  0  0
M  END
>  <StandardizerResult>
Tautomerize


>  <CdId>
144

>  <Mol Weight>
423.91

>  <Formula>
C20H22ClNO5S

>  <Molecule ChEMBL ID>
CHEMBL1689116

>  <Molecule Max Phase>
0

>  <Molecular Weight>
423.92

>  <#RO5 Violations>
0

>  <AlogP>
3.24

>  <Compound Key>
3320

>  <Standard Type>
pKa_B1

>  <Standard Value>
7.8

>  <Comment>
'B1 Functional Group: Piperidine; Ionisation Formula: A1B1 (Functional Group: the part of the molecule the pKa refers to; Ionisation formula: AxBy where 'A' refers to acidic centers within the molecule that are appreciably ionised at a pH <= 11 and 'x' equals 0, 1 or 2; and 'B' refers to basic centers within the molecule that are appreciably ionised at a pH >= 2 and 'y' equals 0, 1, 2 or 3).'

>  <Potential Duplicate>
false

>  <Assay ChEMBL ID>
CHEMBL3301362

>  <Assay Description>
ASTRAZENECA: Most basic pKa value (pKa B1) determined by absorption and potentiometric titration using standard methodology from Sirius Analytical. Experimental range Bases: >= 2.

>  <Assay Type>
P

>  <BAO Format ID>
BAO_0000100

>  <BAO Label>
small-molecule physicochemical format

>  <Target ChEMBL ID>
CHEMBL2362975

>  <Target Name>
No relevant target

>  <Target Type>
NO TARGET

>  <Document ChEMBL ID>
CHEMBL3301361

>  <Source ID>
27

>  <Source Description>
AstraZeneca Deposited Data

>  <Strongest basic pKa>
5.51

>  <deltapKa>
2.2938696657381987

>  <Strongest basic pKa_Taut>
5.51

>  <deltapKa_TAut>
2.2938696657381987

$$$$

  Mrv1920 03272013312D          

 22 24  0  0  0  0            999 V2000
   -0.7418   -1.2839    0.0000 C   0  0  0  0  0  0  0  0  0  0  0  0
   -0.0148   -1.6739    0.0000 C   0  0  0  0  0  0  0  0  0  0  0  0
    0.6864   -1.2393    0.0000 C   0  0  0  0  0  0  0  0  0  0  0  0
    1.4134   -1.6293    0.0000 C   0  0  0  0  0  0  0  0  0  0  0  0
    2.1147   -1.1947    0.0000 C   0  0  0  0  0  0  0  0  0  0  0  0
    2.1752   -0.3719    0.0000 N   0  0  0  0  0  0  0  0  0  0  0  0
    2.9765   -0.1753    0.0000 C   0  0  0  0  0  0  0  0  0  0  0  0
    3.3664    0.5517    0.0000 C   0  0  0  0  0  0  0  0  0  0  0  0
    2.9318    1.2530    0.0000 N   0  0  0  0  0  0  0  0  0  0  0  0
    4.1910    0.5775    0.0000 N   0  0  0  0  0  0  0  0  0  0  0  0
    4.6256   -0.1238    0.0000 C   0  0  0  0  0  0  0  0  0  0  0  0
    5.4502   -0.0980    0.0000 C   0  0  0  0  0  0  0  0  0  0  0  0
    5.8849   -0.7992    0.0000 C   0  0  0  0  0  0  0  0  0  0  0  0
    5.4949   -1.5262    0.0000 C   0  0  0  0  0  0  0  0  0  0  0  0
    4.6703   -1.5520    0.0000 C   0  0  0  0  0  0  0  0  0  0  0  0
    4.2357   -0.8508    0.0000 C   0  0  0  0  0  0  0  0  0  0  0  0
    3.4111   -0.8765    0.0000 C   0  0  0  0  0  0  0  0  0  0  0  0
    2.8784   -1.5066    0.0000 N   0  0  0  0  0  0  0  0  0  0  0  0
    3.0751   -2.3078    0.0000 C   0  0  0  0  0  0  0  0  0  0  0  0
    3.8673   -2.5381    0.0000 C   0  0  0  0  0  0  0  0  0  0  0  0
    4.4628   -1.9672    0.0000 C   0  0  0  0  0  0  0  0  0  0  0  0
    4.0639   -3.3393    0.0000 C   0  0  0  0  0  0  0  0  0  0  0  0
  1  2  1  0  0  0  0
  2  3  1  0  0  0  0
  3  4  1  0  0  0  0
  4  5  1  0  0  0  0
  5  6  2  0  0  0  0
  6  7  1  0  0  0  0
  7  8  1  0  0  0  0
  8  9  1  0  0  0  0
  8 10  2  0  0  0  0
 10 11  1  0  0  0  0
 11 12  1  0  0  0  0
 12 13  2  0  0  0  0
 13 14  1  0  0  0  0
 14 15  2  0  0  0  0
 15 16  1  0  0  0  0
 11 16  2  0  0  0  0
 16 17  1  0  0  0  0
  7 17  2  0  0  0  0
 17 18  1  0  0  0  0
  5 18  1  0  0  0  0
 18 19  1  0  0  0  0
 19 20  1  0  0  0  0
 20 21  1  0  0  0  0
 20 22  1  0  0  0  0
M  END
>  <StandardizerResult>
Tautomerize


>  <CdId>
92

>  <Mol Weight>
296.42

>  <Formula>
C18H24N4

>  <Molecule ChEMBL ID>
CHEMBL192307

>  <Molecule Max Phase>
0

>  <Molecular Weight>
296.42

>  <#RO5 Violations>
0

>  <AlogP>
4.17

>  <Compound Key>
2319

>  <Standard Type>
pKa_B1

>  <Standard Value>
7.3

>  <Comment>
'B1 Functional Group: 3H-imidazo[4,5-c]quinolin-4-amine; Ionisation Formula: A0B1 (Functional Group: the part of the molecule the pKa refers to; Ionisation formula: AxBy where 'A' refers to acidic centers within the molecule that are appreciably ionised at a pH <= 11 and 'x' equals 0, 1 or 2; and 'B' refers to basic centers within the molecule that are appreciably ionised at a pH >= 2 and 'y' equals 0, 1, 2 or 3).'

>  <Potential Duplicate>
false

>  <Assay ChEMBL ID>
CHEMBL3301362

>  <Assay Description>
ASTRAZENECA: Most basic pKa value (pKa B1) determined by absorption and potentiometric titration using standard methodology from Sirius Analytical. Experimental range Bases: >= 2.

>  <Assay Type>
P

>  <BAO Format ID>
BAO_0000100

>  <BAO Label>
small-molecule physicochemical format

>  <Target ChEMBL ID>
CHEMBL2362975

>  <Target Name>
No relevant target

>  <Target Type>
NO TARGET

>  <Document ChEMBL ID>
CHEMBL3301361

>  <Source ID>
27

>  <Source Description>
AstraZeneca Deposited Data

>  <Strongest basic pKa>
4.95

>  <deltapKa>
2.352126344128166

>  <Strongest basic pKa_Taut>
4.95

>  <deltapKa_TAut>
2.352126344128166

$$$$

  Mrv1920 03272013312D          

 41 45  0  0  0  0            999 V2000
    3.4656   -2.9491    0.0000 C   0  0  0  0  0  0  0  0  0  0  0  0
    2.7512   -2.5366    0.0000 C   0  0  0  0  0  0  0  0  0  0  0  0
    2.0367   -2.9491    0.0000 C   0  0  0  0  0  0  0  0  0  0  0  0
    2.0367   -3.7741    0.0000 C   0  0  0  0  0  0  0  0  0  0  0  0
    2.7041   -4.2590    0.0000 N   0  0  0  0  0  0  0  0  0  0  0  0
    2.4492   -5.0437    0.0000 C   0  0  0  0  0  0  0  0  0  0  0  0
    2.9341   -5.7111    0.0000 C   0  0  0  0  0  0  0  0  0  0  0  0
    3.4191   -6.3785    0.0000 C   0  0  0  0  0  0  0  0  0  0  0  0
    2.2667   -6.1960    0.0000 C   0  0  0  0  0  0  0  0  0  0  0  0
    3.6016   -5.2262    0.0000 O   0  0  0  0  0  0  0  0  0  0  0  0
    1.6242   -5.0437    0.0000 C   0  0  0  0  0  0  0  0  0  0  0  0
    1.1393   -5.7111    0.0000 C   0  0  0  0  0  0  0  0  0  0  0  0
    0.3188   -5.6249    0.0000 O   0  0  0  0  0  0  0  0  0  0  0  0
    1.4748   -6.4648    0.0000 O   0  0  0  0  0  0  0  0  0  0  0  0
    0.9899   -7.1322    0.0000 C   0  0  0  0  0  0  0  0  0  0  0  0
    1.3255   -7.8859    0.0000 C   0  0  0  0  0  0  0  0  0  0  0  0
    2.1324   -8.0574    0.0000 O   0  0  0  0  0  0  0  0  0  0  0  0
    2.2187   -8.8779    0.0000 C   0  0  0  0  0  0  0  0  0  0  0  0
    2.9332   -9.2904    0.0000 O   0  0  0  0  0  0  0  0  0  0  0  0
    1.4650   -9.2134    0.0000 O   0  0  0  0  0  0  0  0  0  0  0  0
    0.9130   -8.6004    0.0000 C   0  0  0  0  0  0  0  0  0  0  0  0
    0.0925   -8.6866    0.0000 C   0  0  0  0  0  0  0  0  0  0  0  0
    1.3693   -4.2590    0.0000 N   0  0  0  0  0  0  0  0  0  0  0  0
    0.5846   -4.0041    0.0000 C   0  0  0  0  0  0  0  0  0  0  0  0
    0.4131   -3.1971    0.0000 C   0  0  0  0  0  0  0  0  0  0  0  0
   -0.3715   -2.9422    0.0000 C   0  0  0  0  0  0  0  0  0  0  0  0
   -0.5430   -2.1352    0.0000 C   0  0  0  0  0  0  0  0  0  0  0  0
    0.0701   -1.5832    0.0000 C   0  0  0  0  0  0  0  0  0  0  0  0
   -0.1015   -0.7762    0.0000 C   0  0  0  0  0  0  0  0  0  0  0  0
   -0.8861   -0.5213    0.0000 C   0  0  0  0  0  0  0  0  0  0  0  0
   -1.0576    0.2857    0.0000 C   0  0  0  0  0  0  0  0  0  0  0  0
   -0.4445    0.8377    0.0000 C   0  0  0  0  0  0  0  0  0  0  0  0
    0.3401    0.5828    0.0000 C   0  0  0  0  0  0  0  0  0  0  0  0
    0.5116   -0.2242    0.0000 C   0  0  0  0  0  0  0  0  0  0  0  0
    1.2963   -0.4791    0.0000 C   0  0  0  0  0  0  0  0  0  0  0  0
    1.9637    0.0058    0.0000 N   0  0  0  0  0  0  0  0  0  0  0  0
    2.6311   -0.4791    0.0000 N   0  0  0  0  0  0  0  0  0  0  0  0
    2.3762   -1.2637    0.0000 N   0  0  0  0  0  0  0  0  0  0  0  0
    1.5512   -1.2637    0.0000 N   0  0  0  0  0  0  0  0  0  0  0  0
    0.8547   -1.8381    0.0000 C   0  0  0  0  0  0  0  0  0  0  0  0
    1.0262   -2.6451    0.0000 C   0  0  0  0  0  0  0  0  0  0  0  0
  1  2  1  0  0  0  0
  2  3  1  0  0  0  0
  3  4  1  0  0  0  0
  4  5  2  0  0  0  0
  5  6  1  0  0  0  0
  6  7  1  0  0  0  0
  7  8  1  0  0  0  0
  7  9  1  0  0  0  0
  7 10  1  0  0  0  0
  6 11  2  0  0  0  0
 11 12  1  0  0  0  0
 12 13  2  0  0  0  0
 12 14  1  0  0  0  0
 14 15  1  0  0  0  0
 15 16  1  0  0  0  0
 16 17  1  0  0  0  0
 17 18  1  0  0  0  0
 18 19  2  0  0  0  0
 18 20  1  0  0  0  0
 20 21  1  0  0  0  0
 16 21  2  0  0  0  0
 21 22  1  0  0  0  0
 11 23  1  0  0  0  0
  4 23  1  0  0  0  0
 23 24  1  0  0  0  0
 24 25  1  0  0  0  0
 25 26  2  0  0  0  0
 26 27  1  0  0  0  0
 27 28  2  0  0  0  0
 28 29  1  0  0  0  0
 29 30  2  0  0  0  0
 30 31  1  0  0  0  0
 31 32  2  0  0  0  0
 32 33  1  0  0  0  0
 33 34  2  0  0  0  0
 29 34  1  0  0  0  0
 34 35  1  0  0  0  0
 35 36  2  0  0  0  0
 36 37  1  0  0  0  0
 37 38  1  0  0  0  0
 38 39  2  0  0  0  0
 35 39  1  0  0  0  0
 28 40  1  0  0  0  0
 40 41  2  0  0  0  0
 25 41  1  0  0  0  0
M  END
>  <StandardizerResult>
Tautomerize


>  <CdId>
49

>  <Mol Weight>
558.6

>  <Formula>
C29H30N6O6

>  <Molecule ChEMBL ID>
CHEMBL1200692

>  <Molecule Name>
OLMESARTAN MEDOXOMIL

>  <Molecule Max Phase>
4

>  <Molecular Weight>
558.6

>  <#RO5 Violations>
2

>  <AlogP>
4.17

>  <Compound Key>
4152

>  <Standard Type>
pKa_B1

>  <Standard Value>
6.05

>  <Comment>
'B1 Functional Group: 1H-imidazole; Ionisation Formula: A1B1 (Functional Group: the part of the molecule the pKa refers to; Ionisation formula: AxBy where 'A' refers to acidic centers within the molecule that are appreciably ionised at a pH <= 11 and 'x' equals 0, 1 or 2; and 'B' refers to basic centers within the molecule that are appreciably ionised at a pH >= 2 and 'y' equals 0, 1, 2 or 3).'

>  <Potential Duplicate>
false

>  <Assay ChEMBL ID>
CHEMBL3301362

>  <Assay Description>
ASTRAZENECA: Most basic pKa value (pKa B1) determined by absorption and potentiometric titration using standard methodology from Sirius Analytical. Experimental range Bases: >= 2.

>  <Assay Type>
P

>  <BAO Format ID>
BAO_0000100

>  <BAO Label>
small-molecule physicochemical format

>  <Target ChEMBL ID>
CHEMBL2362975

>  <Target Name>
No relevant target

>  <Target Type>
NO TARGET

>  <Document ChEMBL ID>
CHEMBL3301361

>  <Source ID>
27

>  <Source Description>
AstraZeneca Deposited Data

>  <Strongest basic pKa>
3.63

>  <deltapKa>
2.4196105643750894

>  <Strongest basic pKa_Taut>
3.65

>  <deltapKa_TAut>
2.3998986206931674

$$$$

  Mrv1920 03272013312D          

 28 31  0  0  0  0            999 V2000
    6.4348    4.7720    0.0000 N   0  0  0  0  0  0  0  0  0  0  0  0
    6.2060    3.9794    0.0000 C   0  0  0  0  0  0  0  0  0  0  0  0
    5.9772    3.1867    0.0000 C   0  0  0  0  0  0  0  0  0  0  0  0
    6.5492    2.5922    0.0000 C   0  0  0  0  0  0  0  0  0  0  0  0
    6.3204    1.7996    0.0000 C   0  0  0  0  0  0  0  0  0  0  0  0
    5.5196    1.6015    0.0000 C   0  0  0  0  0  0  0  0  0  0  0  0
    5.2907    0.8088    0.0000 C   0  0  0  0  0  0  0  0  0  0  0  0
    5.8628    0.2143    0.0000 O   0  0  0  0  0  0  0  0  0  0  0  0
    4.4899    0.6107    0.0000 N   0  0  0  0  0  0  0  0  0  0  0  0
    4.2611   -0.1820    0.0000 C   0  0  0  0  0  0  0  0  0  0  0  0
    3.4602   -0.3801    0.0000 C   0  0  0  0  0  0  0  0  0  0  0  0
    2.8882    0.2143    0.0000 C   0  0  0  0  0  0  0  0  0  0  0  0
    3.1170    1.0070    0.0000 C   0  0  0  0  0  0  0  0  0  0  0  0
    3.9179    1.2051    0.0000 C   0  0  0  0  0  0  0  0  0  0  0  0
    2.6594   -0.5783    0.0000 N   0  0  0  0  0  0  0  0  0  0  0  0
    1.8585   -0.7765    0.0000 C   0  0  0  0  0  0  0  0  0  0  0  0
    1.6297   -1.5691    0.0000 N   0  0  0  0  0  0  0  0  0  0  0  0
    1.2865   -0.1820    0.0000 C   0  0  0  0  0  0  0  0  0  0  0  0
    0.4857   -0.3801    0.0000 C   0  0  0  0  0  0  0  0  0  0  0  0
    0.2568   -1.1728    0.0000 F   0  0  0  0  0  0  0  0  0  0  0  0
   -0.0864    0.2143    0.0000 C   0  0  0  0  0  0  0  0  0  0  0  0
    0.1424    1.0070    0.0000 C   0  0  0  0  0  0  0  0  0  0  0  0
    0.9433    1.2051    0.0000 C   0  0  0  0  0  0  0  0  0  0  0  0
    1.1721    1.9978    0.0000 F   0  0  0  0  0  0  0  0  0  0  0  0
    1.5153    0.6107    0.0000 C   0  0  0  0  0  0  0  0  0  0  0  0
    2.3162    0.8088    0.0000 N   0  0  0  0  0  0  0  0  0  0  0  0
    4.9475    2.1959    0.0000 C   0  0  0  0  0  0  0  0  0  0  0  0
    5.1763    2.9886    0.0000 C   0  0  0  0  0  0  0  0  0  0  0  0
  1  2  3  0  0  0  0
  2  3  1  0  0  0  0
  3  4  2  0  0  0  0
  4  5  1  0  0  0  0
  5  6  2  0  0  0  0
  6  7  1  0  0  0  0
  7  8  2  0  0  0  0
  7  9  1  0  0  0  0
  9 10  1  0  0  0  0
 10 11  1  0  0  0  0
 11 12  1  0  0  0  0
 12 13  1  0  0  0  0
 13 14  1  0  0  0  0
  9 14  1  0  0  0  0
 12 15  1  0  0  0  0
 15 16  2  0  0  0  0
 16 17  1  0  0  0  0
 16 18  1  0  0  0  0
 18 19  2  0  0  0  0
 19 20  1  0  0  0  0
 19 21  1  0  0  0  0
 21 22  2  0  0  0  0
 22 23  1  0  0  0  0
 23 24  1  0  0  0  0
 23 25  2  0  0  0  0
 18 25  1  0  0  0  0
 25 26  1  0  0  0  0
 12 26  1  0  0  0  0
  6 27  1  0  0  0  0
 27 28  2  0  0  0  0
  3 28  1  0  0  0  0
M  END
>  <StandardizerResult>
Tautomerize


>  <CdId>
254

>  <Mol Weight>
381.39

>  <Formula>
C20H17F2N5O

>  <Molecule ChEMBL ID>
CHEMBL174310

>  <Molecule Max Phase>
0

>  <Molecular Weight>
381.39

>  <#RO5 Violations>
0

>  <AlogP>
2.6

>  <Compound Key>
1547

>  <Standard Type>
pKa_B1

>  <Standard Value>
8.15

>  <Comment>
'B1 Functional Group: 1,2-Dihydroquinazolin-4-amine; Ionisation Formula: A0B1 (Functional Group: the part of the molecule the pKa refers to; Ionisation formula: AxBy where 'A' refers to acidic centers within the molecule that are appreciably ionised at a pH <= 11 and 'x' equals 0, 1 or 2; and 'B' refers to basic centers within the molecule that are appreciably ionised at a pH >= 2 and 'y' equals 0, 1, 2 or 3).'

>  <Potential Duplicate>
false

>  <Assay ChEMBL ID>
CHEMBL3301362

>  <Assay Description>
ASTRAZENECA: Most basic pKa value (pKa B1) determined by absorption and potentiometric titration using standard methodology from Sirius Analytical. Experimental range Bases: >= 2.

>  <Assay Type>
P

>  <BAO Format ID>
BAO_0000100

>  <BAO Label>
small-molecule physicochemical format

>  <Target ChEMBL ID>
CHEMBL2362975

>  <Target Name>
No relevant target

>  <Target Type>
NO TARGET

>  <Document ChEMBL ID>
CHEMBL3301361

>  <Source ID>
27

>  <Source Description>
AstraZeneca Deposited Data

>  <Strongest basic pKa>
5.75

>  <deltapKa>
2.404944406769074

>  <Strongest basic pKa_Taut>
5.75

>  <deltapKa_TAut>
2.404944406769074

$$$$

  Mrv1920 03272013312D          

 41 45  0  0  1  0            999 V2000
   -1.4289   -8.2500    0.0000 C   0  0  0  0  0  0  0  0  0  0  0  0
   -2.1434   -7.8375    0.0000 C   0  0  0  0  0  0  0  0  0  0  0  0
   -1.7309   -7.1230    0.0000 C   0  0  0  0  0  0  0  0  0  0  0  0
   -2.5559   -8.5520    0.0000 O   0  0  0  0  0  0  0  0  0  0  0  0
   -2.8579   -7.4250    0.0000 C   0  0  0  0  0  0  0  0  0  0  0  0
   -3.5724   -7.8375    0.0000 C   0  0  0  0  0  0  0  0  0  0  0  0
   -4.2868   -7.4250    0.0000 C   0  0  0  0  0  0  0  0  0  0  0  0
   -4.2868   -6.6000    0.0000 C   0  0  0  0  0  0  0  0  0  0  0  0
   -3.5724   -6.1875    0.0000 C   0  0  0  0  0  0  0  0  0  0  0  0
   -2.8579   -6.6000    0.0000 C   0  0  0  0  0  0  0  0  0  0  0  0
   -2.1434   -6.1875    0.0000 C   0  0  0  0  0  0  0  0  0  0  0  0
   -2.1434   -5.3625    0.0000 C   0  0  0  0  0  0  0  0  0  0  0  0
   -1.4289   -4.9500    0.0000 C   0  0  1  0  0  0  0  0  0  0  0  0
   -0.7145   -5.3625    0.0000 S   0  0  0  0  0  0  0  0  0  0  0  0
    0.0000   -4.9500    0.0000 C   0  0  0  0  0  0  0  0  0  0  0  0
    0.7145   -5.3625    0.0000 C   0  0  0  0  0  0  0  0  0  0  0  0
    0.4323   -6.1377    0.0000 C   0  0  0  0  0  0  0  0  0  0  0  0
    0.9626   -6.7697    0.0000 C   0  0  0  0  0  0  0  0  0  0  0  0
    1.7751   -6.6265    0.0000 O   0  0  0  0  0  0  0  0  0  0  0  0
    0.6804   -7.5450    0.0000 O   0  0  0  0  0  0  0  0  0  0  0  0
    1.2448   -4.7305    0.0000 C   0  0  0  0  0  0  0  0  0  0  0  0
    1.5269   -5.5058    0.0000 C   0  0  0  0  0  0  0  0  0  0  0  0
   -1.4289   -4.1250    0.0000 C   0  0  0  0  0  0  0  0  0  0  0  0
   -2.1434   -3.7125    0.0000 C   0  0  0  0  0  0  0  0  0  0  0  0
   -2.1434   -2.8875    0.0000 C   0  0  0  0  0  0  0  0  0  0  0  0
   -1.4289   -2.4750    0.0000 C   0  0  0  0  0  0  0  0  0  0  0  0
   -0.7145   -2.8875    0.0000 C   0  0  0  0  0  0  0  0  0  0  0  0
    0.0000   -2.4750    0.0000 C   0  0  0  0  0  0  0  0  0  0  0  0
    0.0000   -1.6500    0.0000 C   0  0  0  0  0  0  0  0  0  0  0  0
    0.7145   -1.2375    0.0000 C   0  0  0  0  0  0  0  0  0  0  0  0
    0.7145   -0.4125    0.0000 C   0  0  0  0  0  0  0  0  0  0  0  0
    1.4289    0.0000    0.0000 C   0  0  0  0  0  0  0  0  0  0  0  0
    2.1434   -0.4125    0.0000 C   0  0  0  0  0  0  0  0  0  0  0  0
    2.8579    0.0000    0.0000 C   0  0  0  0  0  0  0  0  0  0  0  0
    3.5724   -0.4125    0.0000 C   0  0  0  0  0  0  0  0  0  0  0  0
    3.5724   -1.2375    0.0000 C   0  0  0  0  0  0  0  0  0  0  0  0
    4.2868   -1.6500    0.0000 Cl  0  0  0  0  0  0  0  0  0  0  0  0
    2.8579   -1.6500    0.0000 C   0  0  0  0  0  0  0  0  0  0  0  0
    2.1434   -1.2375    0.0000 C   0  0  0  0  0  0  0  0  0  0  0  0
    1.4289   -1.6500    0.0000 N   0  0  0  0  0  0  0  0  0  0  0  0
   -0.7145   -3.7125    0.0000 C   0  0  0  0  0  0  0  0  0  0  0  0
  1  2  1  0  0  0  0
  2  3  1  0  0  0  0
  2  4  1  0  0  0  0
  2  5  1  0  0  0  0
  5  6  2  0  0  0  0
  6  7  1  0  0  0  0
  7  8  2  0  0  0  0
  8  9  1  0  0  0  0
  9 10  2  0  0  0  0
  5 10  1  0  0  0  0
 10 11  1  0  0  0  0
 11 12  1  0  0  0  0
 13 12  1  0  0  0  0
 13 14  1  6  0  0  0
 14 15  1  0  0  0  0
 15 16  1  0  0  0  0
 16 17  1  0  0  0  0
 17 18  1  0  0  0  0
 18 19  2  0  0  0  0
 18 20  1  0  0  0  0
 16 21  1  0  0  0  0
 21 22  1  0  0  0  0
 16 22  1  0  0  0  0
 13 23  1  0  0  0  0
 23 24  2  0  0  0  0
 24 25  1  0  0  0  0
 25 26  2  0  0  0  0
 26 27  1  0  0  0  0
 27 28  1  0  0  0  0
 28 29  2  0  0  0  0
 29 30  1  0  0  0  0
 30 31  1  0  0  0  0
 31 32  2  0  0  0  0
 32 33  1  0  0  0  0
 33 34  2  0  0  0  0
 34 35  1  0  0  0  0
 35 36  2  0  0  0  0
 36 37  1  0  0  0  0
 36 38  1  0  0  0  0
 38 39  2  0  0  0  0
 33 39  1  0  0  0  0
 39 40  1  0  0  0  0
 30 40  2  0  0  0  0
 27 41  2  0  0  0  0
 23 41  1  0  0  0  0
M  END
>  <StandardizerResult>
Tautomerize


>  <CdId>
218

>  <Mol Weight>
586.19

>  <Formula>
C35H36ClNO3S

>  <Molecule ChEMBL ID>
CHEMBL787

>  <Molecule Name>
MONTELUKAST

>  <Molecule Max Phase>
4

>  <Molecular Weight>
586.2

>  <#RO5 Violations>
2

>  <AlogP>
8.95

>  <Compound Key>
3546

>  <Standard Type>
pKa_B1

>  <Standard Value>
5.6

>  <Comment>
'B1 Functional Group: Quinoline; Ionisation Formula: A1B1 (Functional Group: the part of the molecule the pKa refers to; Ionisation formula: AxBy where 'A' refers to acidic centers within the molecule that are appreciably ionised at a pH <= 11 and 'x' equals 0, 1 or 2; and 'B' refers to basic centers within the molecule that are appreciably ionised at a pH >= 2 and 'y' equals 0, 1, 2 or 3).'

>  <Potential Duplicate>
false

>  <Assay ChEMBL ID>
CHEMBL3301362

>  <Assay Description>
ASTRAZENECA: Most basic pKa value (pKa B1) determined by absorption and potentiometric titration using standard methodology from Sirius Analytical. Experimental range Bases: >= 2.

>  <Assay Type>
P

>  <BAO Format ID>
BAO_0000100

>  <BAO Label>
small-molecule physicochemical format

>  <Target ChEMBL ID>
CHEMBL2362975

>  <Target Name>
No relevant target

>  <Target Type>
NO TARGET

>  <Document ChEMBL ID>
CHEMBL3301361

>  <Source ID>
27

>  <Source Description>
AstraZeneca Deposited Data

>  <Strongest basic pKa>
3.12

>  <deltapKa>
2.478451638599442

>  <Strongest basic pKa_Taut>
3.12

>  <deltapKa_TAut>
2.478451638599442

$$$$

  Mrv1920 03272013312D          

 27 30  0  0  0  0            999 V2000
    6.4348    4.7720    0.0000 N   0  0  0  0  0  0  0  0  0  0  0  0
    6.2060    3.9794    0.0000 C   0  0  0  0  0  0  0  0  0  0  0  0
    5.9772    3.1867    0.0000 C   0  0  0  0  0  0  0  0  0  0  0  0
    6.5492    2.5922    0.0000 C   0  0  0  0  0  0  0  0  0  0  0  0
    6.3204    1.7996    0.0000 C   0  0  0  0  0  0  0  0  0  0  0  0
    5.5196    1.6015    0.0000 C   0  0  0  0  0  0  0  0  0  0  0  0
    5.2907    0.8088    0.0000 C   0  0  0  0  0  0  0  0  0  0  0  0
    5.8628    0.2143    0.0000 O   0  0  0  0  0  0  0  0  0  0  0  0
    4.4899    0.6107    0.0000 N   0  0  0  0  0  0  0  0  0  0  0  0
    4.2611   -0.1820    0.0000 C   0  0  0  0  0  0  0  0  0  0  0  0
    3.4602   -0.3801    0.0000 C   0  0  0  0  0  0  0  0  0  0  0  0
    2.8882    0.2143    0.0000 C   0  0  0  0  0  0  0  0  0  0  0  0
    3.1170    1.0070    0.0000 C   0  0  0  0  0  0  0  0  0  0  0  0
    3.9179    1.2051    0.0000 C   0  0  0  0  0  0  0  0  0  0  0  0
    2.6594   -0.5783    0.0000 N   0  0  0  0  0  0  0  0  0  0  0  0
    1.8585   -0.7765    0.0000 C   0  0  0  0  0  0  0  0  0  0  0  0
    1.6297   -1.5691    0.0000 N   0  0  0  0  0  0  0  0  0  0  0  0
    1.2865   -0.1820    0.0000 C   0  0  0  0  0  0  0  0  0  0  0  0
    0.4857   -0.3801    0.0000 C   0  0  0  0  0  0  0  0  0  0  0  0
    0.2568   -1.1728    0.0000 F   0  0  0  0  0  0  0  0  0  0  0  0
   -0.0864    0.2143    0.0000 C   0  0  0  0  0  0  0  0  0  0  0  0
    0.1424    1.0070    0.0000 C   0  0  0  0  0  0  0  0  0  0  0  0
    0.9433    1.2051    0.0000 C   0  0  0  0  0  0  0  0  0  0  0  0
    1.5153    0.6107    0.0000 C   0  0  0  0  0  0  0  0  0  0  0  0
    2.3162    0.8088    0.0000 N   0  0  0  0  0  0  0  0  0  0  0  0
    4.9475    2.1959    0.0000 C   0  0  0  0  0  0  0  0  0  0  0  0
    5.1763    2.9886    0.0000 C   0  0  0  0  0  0  0  0  0  0  0  0
  1  2  3  0  0  0  0
  2  3  1  0  0  0  0
  3  4  2  0  0  0  0
  4  5  1  0  0  0  0
  5  6  2  0  0  0  0
  6  7  1  0  0  0  0
  7  8  2  0  0  0  0
  7  9  1  0  0  0  0
  9 10  1  0  0  0  0
 10 11  1  0  0  0  0
 11 12  1  0  0  0  0
 12 13  1  0  0  0  0
 13 14  1  0  0  0  0
  9 14  1  0  0  0  0
 12 15  1  0  0  0  0
 15 16  2  0  0  0  0
 16 17  1  0  0  0  0
 16 18  1  0  0  0  0
 18 19  2  0  0  0  0
 19 20  1  0  0  0  0
 19 21  1  0  0  0  0
 21 22  2  0  0  0  0
 22 23  1  0  0  0  0
 23 24  2  0  0  0  0
 18 24  1  0  0  0  0
 24 25  1  0  0  0  0
 12 25  1  0  0  0  0
  6 26  1  0  0  0  0
 26 27  2  0  0  0  0
  3 27  1  0  0  0  0
M  END
>  <StandardizerResult>
Tautomerize


>  <CdId>
119

>  <Mol Weight>
363.4

>  <Formula>
C20H18FN5O

>  <Molecule ChEMBL ID>
CHEMBL367556

>  <Molecule Max Phase>
0

>  <Molecular Weight>
363.4

>  <#RO5 Violations>
0

>  <AlogP>
2.46

>  <Compound Key>
1527

>  <Standard Type>
pKa_B1

>  <Standard Value>
9.0

>  <Comment>
'B1 Functional Group: 1,2-Dihydroquinazolin-4-amine; Ionisation Formula: A0B1 (Functional Group: the part of the molecule the pKa refers to; Ionisation formula: AxBy where 'A' refers to acidic centers within the molecule that are appreciably ionised at a pH <= 11 and 'x' equals 0, 1 or 2; and 'B' refers to basic centers within the molecule that are appreciably ionised at a pH >= 2 and 'y' equals 0, 1, 2 or 3).'

>  <Potential Duplicate>
false

>  <Assay ChEMBL ID>
CHEMBL3301362

>  <Assay Description>
ASTRAZENECA: Most basic pKa value (pKa B1) determined by absorption and potentiometric titration using standard methodology from Sirius Analytical. Experimental range Bases: >= 2.

>  <Assay Type>
P

>  <BAO Format ID>
BAO_0000100

>  <BAO Label>
small-molecule physicochemical format

>  <Target ChEMBL ID>
CHEMBL2362975

>  <Target Name>
No relevant target

>  <Target Type>
NO TARGET

>  <Document ChEMBL ID>
CHEMBL3301361

>  <Source ID>
27

>  <Source Description>
AstraZeneca Deposited Data

>  <Strongest basic pKa>
6.37

>  <deltapKa>
2.629287916029541

>  <Strongest basic pKa_Taut>
6.37

>  <deltapKa_TAut>
2.629287916029541

$$$$

  Mrv1920 03272013312D          

 28 31  0  0  0  0            999 V2000
    6.4348    4.7720    0.0000 N   0  0  0  0  0  0  0  0  0  0  0  0
    6.2060    3.9794    0.0000 C   0  0  0  0  0  0  0  0  0  0  0  0
    5.9772    3.1867    0.0000 C   0  0  0  0  0  0  0  0  0  0  0  0
    6.5492    2.5922    0.0000 C   0  0  0  0  0  0  0  0  0  0  0  0
    6.3204    1.7996    0.0000 C   0  0  0  0  0  0  0  0  0  0  0  0
    5.5196    1.6015    0.0000 C   0  0  0  0  0  0  0  0  0  0  0  0
    5.2907    0.8088    0.0000 C   0  0  0  0  0  0  0  0  0  0  0  0
    5.8628    0.2143    0.0000 O   0  0  0  0  0  0  0  0  0  0  0  0
    4.4899    0.6107    0.0000 N   0  0  0  0  0  0  0  0  0  0  0  0
    4.2611   -0.1820    0.0000 C   0  0  0  0  0  0  0  0  0  0  0  0
    3.4602   -0.3801    0.0000 C   0  0  0  0  0  0  0  0  0  0  0  0
    2.8882    0.2143    0.0000 C   0  0  0  0  0  0  0  0  0  0  0  0
    3.1170    1.0070    0.0000 C   0  0  0  0  0  0  0  0  0  0  0  0
    3.9179    1.2051    0.0000 C   0  0  0  0  0  0  0  0  0  0  0  0
    2.6594   -0.5783    0.0000 N   0  0  0  0  0  0  0  0  0  0  0  0
    1.8585   -0.7765    0.0000 C   0  0  0  0  0  0  0  0  0  0  0  0
    1.6297   -1.5691    0.0000 N   0  0  0  0  0  0  0  0  0  0  0  0
    1.2865   -0.1820    0.0000 C   0  0  0  0  0  0  0  0  0  0  0  0
    0.4857   -0.3801    0.0000 C   0  0  0  0  0  0  0  0  0  0  0  0
    0.2568   -1.1728    0.0000 F   0  0  0  0  0  0  0  0  0  0  0  0
   -0.0864    0.2143    0.0000 C   0  0  0  0  0  0  0  0  0  0  0  0
    0.1424    1.0070    0.0000 C   0  0  0  0  0  0  0  0  0  0  0  0
    0.9433    1.2051    0.0000 C   0  0  0  0  0  0  0  0  0  0  0  0
    1.1721    1.9978    0.0000 F   0  0  0  0  0  0  0  0  0  0  0  0
    1.5153    0.6107    0.0000 C   0  0  0  0  0  0  0  0  0  0  0  0
    2.3162    0.8088    0.0000 N   0  0  0  0  0  0  0  0  0  0  0  0
    4.9475    2.1959    0.0000 C   0  0  0  0  0  0  0  0  0  0  0  0
    5.1763    2.9886    0.0000 N   0  0  0  0  0  0  0  0  0  0  0  0
  1  2  3  0  0  0  0
  2  3  1  0  0  0  0
  3  4  2  0  0  0  0
  4  5  1  0  0  0  0
  5  6  2  0  0  0  0
  6  7  1  0  0  0  0
  7  8  2  0  0  0  0
  7  9  1  0  0  0  0
  9 10  1  0  0  0  0
 10 11  1  0  0  0  0
 11 12  1  0  0  0  0
 12 13  1  0  0  0  0
 13 14  1  0  0  0  0
  9 14  1  0  0  0  0
 12 15  1  0  0  0  0
 15 16  2  0  0  0  0
 16 17  1  0  0  0  0
 16 18  1  0  0  0  0
 18 19  2  0  0  0  0
 19 20  1  0  0  0  0
 19 21  1  0  0  0  0
 21 22  2  0  0  0  0
 22 23  1  0  0  0  0
 23 24  1  0  0  0  0
 23 25  2  0  0  0  0
 18 25  1  0  0  0  0
 25 26  1  0  0  0  0
 12 26  1  0  0  0  0
  6 27  1  0  0  0  0
 27 28  2  0  0  0  0
  3 28  1  0  0  0  0
M  END
>  <StandardizerResult>
Tautomerize


>  <CdId>
190

>  <Mol Weight>
382.38

>  <Formula>
C19H16F2N6O

>  <Molecule ChEMBL ID>
CHEMBL447183

>  <Molecule Max Phase>
0

>  <Molecular Weight>
382.37

>  <#RO5 Violations>
0

>  <AlogP>
1.99

>  <Compound Key>
1783

>  <Standard Type>
pKa_B1

>  <Standard Value>
8.4

>  <Comment>
'B1 Functional Group: 1,2-Dihydroquinazolin-4-amine; Ionisation Formula: A0B1 (Functional Group: the part of the molecule the pKa refers to; Ionisation formula: AxBy where 'A' refers to acidic centers within the molecule that are appreciably ionised at a pH <= 11 and 'x' equals 0, 1 or 2; and 'B' refers to basic centers within the molecule that are appreciably ionised at a pH >= 2 and 'y' equals 0, 1, 2 or 3).'

>  <Potential Duplicate>
false

>  <Assay ChEMBL ID>
CHEMBL3301362

>  <Assay Description>
ASTRAZENECA: Most basic pKa value (pKa B1) determined by absorption and potentiometric titration using standard methodology from Sirius Analytical. Experimental range Bases: >= 2.

>  <Assay Type>
P

>  <BAO Format ID>
BAO_0000100

>  <BAO Label>
small-molecule physicochemical format

>  <Target ChEMBL ID>
CHEMBL2362975

>  <Target Name>
No relevant target

>  <Target Type>
NO TARGET

>  <Document ChEMBL ID>
CHEMBL3301361

>  <Source ID>
27

>  <Source Description>
AstraZeneca Deposited Data

>  <Strongest basic pKa>
5.75

>  <deltapKa>
2.6549419741151583

>  <Strongest basic pKa_Taut>
5.75

>  <deltapKa_TAut>
2.6549419741151583

$$$$

  Mrv1920 03272013312D          

 22 24  0  0  0  0            999 V2000
    6.5492    2.5922    0.0000 C   0  0  0  0  0  0  0  0  0  0  0  0
    6.3204    1.7996    0.0000 C   0  0  0  0  0  0  0  0  0  0  0  0
    5.5196    1.6015    0.0000 O   0  0  0  0  0  0  0  0  0  0  0  0
    5.2907    0.8088    0.0000 C   0  0  0  0  0  0  0  0  0  0  0  0
    5.8628    0.2143    0.0000 O   0  0  0  0  0  0  0  0  0  0  0  0
    4.4899    0.6107    0.0000 N   0  0  0  0  0  0  0  0  0  0  0  0
    4.2611   -0.1820    0.0000 C   0  0  0  0  0  0  0  0  0  0  0  0
    3.4602   -0.3801    0.0000 C   0  0  0  0  0  0  0  0  0  0  0  0
    2.8882    0.2143    0.0000 C   0  0  0  0  0  0  0  0  0  0  0  0
    3.1170    1.0070    0.0000 C   0  0  0  0  0  0  0  0  0  0  0  0
    3.9179    1.2051    0.0000 C   0  0  0  0  0  0  0  0  0  0  0  0
    2.6594   -0.5783    0.0000 N   0  0  0  0  0  0  0  0  0  0  0  0
    1.8585   -0.7765    0.0000 C   0  0  0  0  0  0  0  0  0  0  0  0
    1.6297   -1.5691    0.0000 N   0  0  0  0  0  0  0  0  0  0  0  0
    1.2865   -0.1820    0.0000 C   0  0  0  0  0  0  0  0  0  0  0  0
    0.4857   -0.3801    0.0000 C   0  0  0  0  0  0  0  0  0  0  0  0
    0.2568   -1.1728    0.0000 F   0  0  0  0  0  0  0  0  0  0  0  0
   -0.0864    0.2143    0.0000 C   0  0  0  0  0  0  0  0  0  0  0  0
    0.1424    1.0070    0.0000 C   0  0  0  0  0  0  0  0  0  0  0  0
    0.9433    1.2051    0.0000 C   0  0  0  0  0  0  0  0  0  0  0  0
    1.5153    0.6107    0.0000 C   0  0  0  0  0  0  0  0  0  0  0  0
    2.3162    0.8088    0.0000 N   0  0  0  0  0  0  0  0  0  0  0  0
  1  2  1  0  0  0  0
  2  3  1  0  0  0  0
  3  4  1  0  0  0  0
  4  5  2  0  0  0  0
  4  6  1  0  0  0  0
  6  7  1  0  0  0  0
  7  8  1  0  0  0  0
  8  9  1  0  0  0  0
  9 10  1  0  0  0  0
 10 11  1  0  0  0  0
  6 11  1  0  0  0  0
  9 12  1  0  0  0  0
 12 13  2  0  0  0  0
 13 14  1  0  0  0  0
 13 15  1  0  0  0  0
 15 16  2  0  0  0  0
 16 17  1  0  0  0  0
 16 18  1  0  0  0  0
 18 19  2  0  0  0  0
 19 20  1  0  0  0  0
 20 21  2  0  0  0  0
 15 21  1  0  0  0  0
 21 22  1  0  0  0  0
  9 22  1  0  0  0  0
M  END
>  <StandardizerResult>
Tautomerize


>  <CdId>
133

>  <Mol Weight>
306.34

>  <Formula>
C15H19FN4O2

>  <Molecule ChEMBL ID>
CHEMBL174290

>  <Molecule Max Phase>
0

>  <Molecular Weight>
306.34

>  <#RO5 Violations>
0

>  <AlogP>
1.91

>  <Compound Key>
2300

>  <Standard Type>
pKa_B1

>  <Standard Value>
9.1

>  <Comment>
'B1 Functional Group: 1,2-Dihydroquinazolin-4-amine; Ionisation Formula: A0B1 (Functional Group: the part of the molecule the pKa refers to; Ionisation formula: AxBy where 'A' refers to acidic centers within the molecule that are appreciably ionised at a pH <= 11 and 'x' equals 0, 1 or 2; and 'B' refers to basic centers within the molecule that are appreciably ionised at a pH >= 2 and 'y' equals 0, 1, 2 or 3).'

>  <Potential Duplicate>
false

>  <Assay ChEMBL ID>
CHEMBL3301362

>  <Assay Description>
ASTRAZENECA: Most basic pKa value (pKa B1) determined by absorption and potentiometric titration using standard methodology from Sirius Analytical. Experimental range Bases: >= 2.

>  <Assay Type>
P

>  <BAO Format ID>
BAO_0000100

>  <BAO Label>
small-molecule physicochemical format

>  <Target ChEMBL ID>
CHEMBL2362975

>  <Target Name>
No relevant target

>  <Target Type>
NO TARGET

>  <Document ChEMBL ID>
CHEMBL3301361

>  <Source ID>
27

>  <Source Description>
AstraZeneca Deposited Data

>  <Strongest basic pKa>
6.37

>  <deltapKa>
2.7293433570942405

>  <Strongest basic pKa_Taut>
6.37

>  <deltapKa_TAut>
2.7293433570942405

$$$$

  Mrv1920 03272013312D          

 22 25  0  0  0  0            999 V2000
    0.5429    2.3393    0.0000 O   0  0  0  0  0  0  0  0  0  0  0  0
    1.2654    2.7376    0.0000 C   0  0  0  0  0  0  0  0  0  0  0  0
    1.9716    2.3111    0.0000 C   0  0  0  0  0  0  0  0  0  0  0  0
    1.9554    1.4863    0.0000 N   0  0  0  0  0  0  0  0  0  0  0  0
    2.6131    0.9883    0.0000 C   0  0  0  0  0  0  0  0  0  0  0  0
    3.4379    0.9720    0.0000 N   0  0  0  0  0  0  0  0  0  0  0  0
    3.6774    0.1825    0.0000 C   0  0  0  0  0  0  0  0  0  0  0  0
    3.0005   -0.2892    0.0000 C   0  0  0  0  0  0  0  0  0  0  0  0
    2.3427    0.2088    0.0000 N   0  0  0  0  0  0  0  0  0  0  0  0
    1.5179    0.2251    0.0000 C   0  0  0  0  0  0  0  0  0  0  0  0
    0.9539   -0.3770    0.0000 C   0  0  0  0  0  0  0  0  0  0  0  0
    0.1505   -0.1896    0.0000 C   0  0  0  0  0  0  0  0  0  0  0  0
   -0.0890    0.5999    0.0000 C   0  0  0  0  0  0  0  0  0  0  0  0
    0.4750    1.2020    0.0000 C   0  0  0  0  0  0  0  0  0  0  0  0
    1.2785    1.0146    0.0000 C   0  0  0  0  0  0  0  0  0  0  0  0
    1.2817    3.5624    0.0000 C   0  0  0  0  0  0  0  0  0  0  0  0
    0.5755    3.9890    0.0000 C   0  0  0  0  0  0  0  0  0  0  0  0
    0.5917    4.8138    0.0000 C   0  0  0  0  0  0  0  0  0  0  0  0
    1.3142    5.2121    0.0000 C   0  0  0  0  0  0  0  0  0  0  0  0
    1.3305    6.0370    0.0000 Cl  0  0  0  0  0  0  0  0  0  0  0  0
    2.0204    4.7856    0.0000 C   0  0  0  0  0  0  0  0  0  0  0  0
    2.0041    3.9608    0.0000 C   0  0  0  0  0  0  0  0  0  0  0  0
  1  2  2  0  0  0  0
  2  3  1  0  0  0  0
  3  4  1  0  0  0  0
  4  5  1  0  0  0  0
  5  6  2  0  0  0  0
  6  7  1  0  0  0  0
  7  8  1  0  0  0  0
  8  9  1  0  0  0  0
  5  9  1  0  0  0  0
  9 10  1  0  0  0  0
 10 11  2  0  0  0  0
 11 12  1  0  0  0  0
 12 13  2  0  0  0  0
 13 14  1  0  0  0  0
 14 15  2  0  0  0  0
 10 15  1  0  0  0  0
  4 15  1  0  0  0  0
  2 16  1  0  0  0  0
 16 17  2  0  0  0  0
 17 18  1  0  0  0  0
 18 19  2  0  0  0  0
 19 20  1  0  0  0  0
 19 21  1  0  0  0  0
 21 22  2  0  0  0  0
 16 22  1  0  0  0  0
M  END
>  <StandardizerResult>
Tautomerize


>  <CdId>
72

>  <Mol Weight>
311.77

>  <Formula>
C17H14ClN3O

>  <Molecule ChEMBL ID>
CHEMBL2094588

>  <Molecule Max Phase>
0

>  <Molecular Weight>
311.77

>  <#RO5 Violations>
0

>  <AlogP>
3.22

>  <Compound Key>
1708

>  <Standard Type>
pKa_B1

>  <Standard Value>
9.1

>  <Comment>
'B1 Functional Group: 3H-Imidazo[1,2-a]benzimidazole, 2,9-dihydro-; Ionisation Formula: A0B1 (Functional Group: the part of the molecule the pKa refers to; Ionisation formula: AxBy where 'A' refers to acidic centers within the molecule that are appreciably ionised at a pH <= 11 and 'x' equals 0, 1 or 2; and 'B' refers to basic centers within the molecule that are appreciably ionised at a pH >= 2 and 'y' equals 0, 1, 2 or 3).'

>  <Potential Duplicate>
false

>  <Assay ChEMBL ID>
CHEMBL3301362

>  <Assay Description>
ASTRAZENECA: Most basic pKa value (pKa B1) determined by absorption and potentiometric titration using standard methodology from Sirius Analytical. Experimental range Bases: >= 2.

>  <Assay Type>
P

>  <BAO Format ID>
BAO_0000100

>  <BAO Label>
small-molecule physicochemical format

>  <Target ChEMBL ID>
CHEMBL2362975

>  <Target Name>
No relevant target

>  <Target Type>
NO TARGET

>  <Document ChEMBL ID>
CHEMBL3301361

>  <Source ID>
27

>  <Source Description>
AstraZeneca Deposited Data

>  <Strongest basic pKa>
6.28

>  <deltapKa>
2.817470242149284

>  <Strongest basic pKa_Taut>
6.28

>  <deltapKa_TAut>
2.817470242149284

$$$$

  Mrv1920 03272013312D          

 17 19  0  0  0  0            999 V2000
    1.4289   -2.4750    0.0000 N   0  0  0  0  0  0  0  0  0  0  0  0
    1.4289   -1.6500    0.0000 C   0  0  0  0  0  0  0  0  0  0  0  0
    0.7145   -1.2375    0.0000 N   0  0  0  0  0  0  0  0  0  0  0  0
    0.7145   -0.4125    0.0000 C   0  0  0  0  0  0  0  0  0  0  0  0
    0.0000    0.0000    0.0000 C   0  0  0  0  0  0  0  0  0  0  0  0
   -0.7537   -0.3356    0.0000 C   0  0  0  0  0  0  0  0  0  0  0  0
   -1.3057    0.2775    0.0000 C   0  0  0  0  0  0  0  0  0  0  0  0
   -0.8932    0.9920    0.0000 C   0  0  0  0  0  0  0  0  0  0  0  0
   -0.0862    0.8205    0.0000 S   0  0  0  0  0  0  0  0  0  0  0  0
    1.4289    0.0000    0.0000 N   0  0  0  0  0  0  0  0  0  0  0  0
    2.1434   -0.4125    0.0000 C   0  0  0  0  0  0  0  0  0  0  0  0
    2.8579    0.0000    0.0000 C   0  0  0  0  0  0  0  0  0  0  0  0
    3.5724   -0.4125    0.0000 C   0  0  0  0  0  0  0  0  0  0  0  0
    3.5724   -1.2375    0.0000 C   0  0  0  0  0  0  0  0  0  0  0  0
    2.8579   -1.6500    0.0000 C   0  0  0  0  0  0  0  0  0  0  0  0
    2.8579   -2.4750    0.0000 F   0  0  0  0  0  0  0  0  0  0  0  0
    2.1434   -1.2375    0.0000 C   0  0  0  0  0  0  0  0  0  0  0  0
  1  2  1  0  0  0  0
  2  3  2  0  0  0  0
  3  4  1  0  0  0  0
  4  5  1  0  0  0  0
  5  6  2  0  0  0  0
  6  7  1  0  0  0  0
  7  8  2  0  0  0  0
  8  9  1  0  0  0  0
  5  9  1  0  0  0  0
  4 10  1  0  0  0  0
 10 11  1  0  0  0  0
 11 12  2  0  0  0  0
 12 13  1  0  0  0  0
 13 14  2  0  0  0  0
 14 15  1  0  0  0  0
 15 16  1  0  0  0  0
 15 17  2  0  0  0  0
 11 17  1  0  0  0  0
  2 17  1  0  0  0  0
M  END
>  <StandardizerResult>
Tautomerize


>  <CdId>
229

>  <Mol Weight>
247.29

>  <Formula>
C12H10FN3S

>  <Molecule ChEMBL ID>
CHEMBL1221607

>  <Molecule Max Phase>
0

>  <Molecular Weight>
247.3

>  <#RO5 Violations>
0

>  <AlogP>
2.72

>  <Compound Key>
2298

>  <Standard Type>
pKa_B1

>  <Standard Value>
8.73

>  <Comment>
'B1 Functional Group: 4-Quiniazolinamine, 1,2-dihydro-; Ionisation Formula: A0B1 (Functional Group: the part of the molecule the pKa refers to; Ionisation formula: AxBy where 'A' refers to acidic centers within the molecule that are appreciably ionised at a pH <= 11 and 'x' equals 0, 1 or 2; and 'B' refers to basic centers within the molecule that are appreciably ionised at a pH >= 2 and 'y' equals 0, 1, 2 or 3).'

>  <Potential Duplicate>
false

>  <Assay ChEMBL ID>
CHEMBL3301362

>  <Assay Description>
ASTRAZENECA: Most basic pKa value (pKa B1) determined by absorption and potentiometric titration using standard methodology from Sirius Analytical. Experimental range Bases: >= 2.

>  <Assay Type>
P

>  <BAO Format ID>
BAO_0000100

>  <BAO Label>
small-molecule physicochemical format

>  <Target ChEMBL ID>
CHEMBL2362975

>  <Target Name>
No relevant target

>  <Target Type>
NO TARGET

>  <Document ChEMBL ID>
CHEMBL3301361

>  <Source ID>
27

>  <Source Description>
AstraZeneca Deposited Data

>  <Strongest basic pKa>
5.84

>  <deltapKa>
2.8933037712227145

>  <Strongest basic pKa_Taut>
5.84

>  <deltapKa_TAut>
2.8933037712227145

$$$$

  Mrv1920 03272013312D          

 19 21  0  0  0  0            999 V2000
    1.4289   -2.4750    0.0000 N   0  0  0  0  0  0  0  0  0  0  0  0
    1.4289   -1.6500    0.0000 C   0  0  0  0  0  0  0  0  0  0  0  0
    0.7145   -1.2375    0.0000 N   0  0  0  0  0  0  0  0  0  0  0  0
    0.7145   -0.4125    0.0000 C   0  0  0  0  0  0  0  0  0  0  0  0
    0.0000    0.0000    0.0000 C   0  0  0  0  0  0  0  0  0  0  0  0
   -0.7145   -0.4125    0.0000 C   0  0  0  0  0  0  0  0  0  0  0  0
   -1.4289    0.0000    0.0000 C   0  0  0  0  0  0  0  0  0  0  0  0
   -1.4289    0.8250    0.0000 C   0  0  0  0  0  0  0  0  0  0  0  0
   -2.1434    1.2375    0.0000 F   0  0  0  0  0  0  0  0  0  0  0  0
   -0.7145    1.2375    0.0000 C   0  0  0  0  0  0  0  0  0  0  0  0
    0.0000    0.8250    0.0000 C   0  0  0  0  0  0  0  0  0  0  0  0
    1.4289    0.0000    0.0000 N   0  0  0  0  0  0  0  0  0  0  0  0
    2.1434   -0.4125    0.0000 C   0  0  0  0  0  0  0  0  0  0  0  0
    2.8579    0.0000    0.0000 C   0  0  0  0  0  0  0  0  0  0  0  0
    3.5724   -0.4125    0.0000 C   0  0  0  0  0  0  0  0  0  0  0  0
    3.5724   -1.2375    0.0000 C   0  0  0  0  0  0  0  0  0  0  0  0
    2.8579   -1.6500    0.0000 C   0  0  0  0  0  0  0  0  0  0  0  0
    2.8579   -2.4750    0.0000 F   0  0  0  0  0  0  0  0  0  0  0  0
    2.1434   -1.2375    0.0000 C   0  0  0  0  0  0  0  0  0  0  0  0
  1  2  1  0  0  0  0
  2  3  2  0  0  0  0
  3  4  1  0  0  0  0
  4  5  1  0  0  0  0
  5  6  2  0  0  0  0
  6  7  1  0  0  0  0
  7  8  2  0  0  0  0
  8  9  1  0  0  0  0
  8 10  1  0  0  0  0
 10 11  2  0  0  0  0
  5 11  1  0  0  0  0
  4 12  1  0  0  0  0
 12 13  1  0  0  0  0
 13 14  2  0  0  0  0
 14 15  1  0  0  0  0
 15 16  2  0  0  0  0
 16 17  1  0  0  0  0
 17 18  1  0  0  0  0
 17 19  2  0  0  0  0
 13 19  1  0  0  0  0
  2 19  1  0  0  0  0
M  END
>  <StandardizerResult>
Tautomerize


>  <CdId>
259

>  <Mol Weight>
259.26

>  <Formula>
C14H11F2N3

>  <Molecule ChEMBL ID>
CHEMBL354516

>  <Molecule Max Phase>
0

>  <Molecular Weight>
259.26

>  <#RO5 Violations>
0

>  <AlogP>
2.79

>  <Compound Key>
2316

>  <Standard Type>
pKa_B1

>  <Standard Value>
9.0

>  <Comment>
'B1 Functional Group: 4-Quiniazolinamine, 1,2-dihydro-; Ionisation Formula: A0B1 (Functional Group: the part of the molecule the pKa refers to; Ionisation formula: AxBy where 'A' refers to acidic centers within the molecule that are appreciably ionised at a pH <= 11 and 'x' equals 0, 1 or 2; and 'B' refers to basic centers within the molecule that are appreciably ionised at a pH >= 2 and 'y' equals 0, 1, 2 or 3).'

>  <Potential Duplicate>
false

>  <Assay ChEMBL ID>
CHEMBL3301362

>  <Assay Description>
ASTRAZENECA: Most basic pKa value (pKa B1) determined by absorption and potentiometric titration using standard methodology from Sirius Analytical. Experimental range Bases: >= 2.

>  <Assay Type>
P

>  <BAO Format ID>
BAO_0000100

>  <BAO Label>
small-molecule physicochemical format

>  <Target ChEMBL ID>
CHEMBL2362975

>  <Target Name>
No relevant target

>  <Target Type>
NO TARGET

>  <Document ChEMBL ID>
CHEMBL3301361

>  <Source ID>
27

>  <Source Description>
AstraZeneca Deposited Data

>  <Strongest basic pKa>
6.06

>  <deltapKa>
2.938874303946073

>  <Strongest basic pKa_Taut>
6.06

>  <deltapKa_TAut>
2.938874303946073

$$$$

  Mrv1920 03272013312D          

 13 15  0  0  0  0            999 V2000
    3.2789    2.0625    0.0000 N   0  0  0  0  0  0  0  0  0  0  0  0
    3.2789    1.2375    0.0000 C   0  0  0  0  0  0  0  0  0  0  0  0
    3.9934    0.8250    0.0000 N   0  0  0  0  0  0  0  0  0  0  0  0
    3.9934    0.0000    0.0000 C   0  0  0  0  0  0  0  0  0  0  0  0
    4.7079   -0.4125    0.0000 C   0  0  0  0  0  0  0  0  0  0  0  0
    5.5329   -0.4125    0.0000 C   0  0  0  0  0  0  0  0  0  0  0  0
    5.1204   -1.1270    0.0000 C   0  0  0  0  0  0  0  0  0  0  0  0
    3.2789   -0.4125    0.0000 C   0  0  0  0  0  0  0  0  0  0  0  0
    2.5645    0.0000    0.0000 C   0  0  0  0  0  0  0  0  0  0  0  0
    1.7798   -0.2549    0.0000 C   0  0  0  0  0  0  0  0  0  0  0  0
    1.2949    0.4125    0.0000 C   0  0  0  0  0  0  0  0  0  0  0  0
    1.7798    1.0799    0.0000 S   0  0  0  0  0  0  0  0  0  0  0  0
    2.5645    0.8250    0.0000 C   0  0  0  0  0  0  0  0  0  0  0  0
  1  2  1  0  0  0  0
  2  3  2  0  0  0  0
  3  4  1  0  0  0  0
  4  5  1  0  0  0  0
  5  6  1  0  0  0  0
  6  7  1  0  0  0  0
  5  7  1  0  0  0  0
  4  8  1  0  0  0  0
  8  9  1  0  0  0  0
  9 10  1  0  0  0  0
 10 11  2  0  0  0  0
 11 12  1  0  0  0  0
 12 13  1  0  0  0  0
  9 13  2  0  0  0  0
  2 13  1  0  0  0  0
M  END
>  <StandardizerResult>
Tautomerize


>  <CdId>
185

>  <Mol Weight>
192.28

>  <Formula>
C10H12N2S

>  <Molecule ChEMBL ID>
CHEMBL8365

>  <Molecule Max Phase>
0

>  <Molecular Weight>
192.29

>  <#RO5 Violations>
0

>  <AlogP>
1.79

>  <Compound Key>
2538

>  <Standard Type>
pKa_B1

>  <Standard Value>
11.0

>  <Comment>
'B1 Functional Group: Thieno[2,3-c]pyridin-7-amine, 4,5-dihydro-; Ionisation Formula: A0B1 (Functional Group: the part of the molecule the pKa refers to; Ionisation formula: AxBy where 'A' refers to acidic centers within the molecule that are appreciably ionised at a pH <= 11 and 'x' equals 0, 1 or 2; and 'B' refers to basic centers within the molecule that are appreciably ionised at a pH >= 2 and 'y' equals 0, 1, 2 or 3).'

>  <Potential Duplicate>
false

>  <Assay ChEMBL ID>
CHEMBL3301362

>  <Assay Description>
ASTRAZENECA: Most basic pKa value (pKa B1) determined by absorption and potentiometric titration using standard methodology from Sirius Analytical. Experimental range Bases: >= 2.

>  <Assay Type>
P

>  <BAO Format ID>
BAO_0000100

>  <BAO Label>
small-molecule physicochemical format

>  <Target ChEMBL ID>
CHEMBL2362975

>  <Target Name>
No relevant target

>  <Target Type>
NO TARGET

>  <Document ChEMBL ID>
CHEMBL3301361

>  <Source ID>
27

>  <Source Description>
AstraZeneca Deposited Data

>  <Strongest basic pKa>
7.89

>  <deltapKa>
3.113559843522877

>  <Strongest basic pKa_Taut>
7.89

>  <deltapKa_TAut>
3.113559843522877

$$$$

  Mrv1920 03272013312D          

 18 20  0  0  0  0            999 V2000
    1.4289   -2.4750    0.0000 N   0  0  0  0  0  0  0  0  0  0  0  0
    1.4289   -1.6500    0.0000 C   0  0  0  0  0  0  0  0  0  0  0  0
    0.7145   -1.2375    0.0000 N   0  0  0  0  0  0  0  0  0  0  0  0
    0.7145   -0.4125    0.0000 C   0  0  0  0  0  0  0  0  0  0  0  0
    0.0000    0.0000    0.0000 C   0  0  0  0  0  0  0  0  0  0  0  0
   -0.7537   -0.3356    0.0000 C   0  0  0  0  0  0  0  0  0  0  0  0
   -1.3057    0.2775    0.0000 C   0  0  0  0  0  0  0  0  0  0  0  0
   -0.8932    0.9920    0.0000 C   0  0  0  0  0  0  0  0  0  0  0  0
   -0.0862    0.8205    0.0000 O   0  0  0  0  0  0  0  0  0  0  0  0
    1.4289    0.0000    0.0000 N   0  0  0  0  0  0  0  0  0  0  0  0
    2.1434   -0.4125    0.0000 C   0  0  0  0  0  0  0  0  0  0  0  0
    2.8579    0.0000    0.0000 C   0  0  0  0  0  0  0  0  0  0  0  0
    2.8579    0.8250    0.0000 F   0  0  0  0  0  0  0  0  0  0  0  0
    3.5724   -0.4125    0.0000 C   0  0  0  0  0  0  0  0  0  0  0  0
    3.5724   -1.2375    0.0000 C   0  0  0  0  0  0  0  0  0  0  0  0
    2.8579   -1.6500    0.0000 C   0  0  0  0  0  0  0  0  0  0  0  0
    2.8579   -2.4750    0.0000 F   0  0  0  0  0  0  0  0  0  0  0  0
    2.1434   -1.2375    0.0000 C   0  0  0  0  0  0  0  0  0  0  0  0
  1  2  1  0  0  0  0
  2  3  2  0  0  0  0
  3  4  1  0  0  0  0
  4  5  1  0  0  0  0
  5  6  2  0  0  0  0
  6  7  1  0  0  0  0
  7  8  2  0  0  0  0
  8  9  1  0  0  0  0
  5  9  1  0  0  0  0
  4 10  1  0  0  0  0
 10 11  1  0  0  0  0
 11 12  2  0  0  0  0
 12 13  1  0  0  0  0
 12 14  1  0  0  0  0
 14 15  2  0  0  0  0
 15 16  1  0  0  0  0
 16 17  1  0  0  0  0
 16 18  2  0  0  0  0
 11 18  1  0  0  0  0
  2 18  1  0  0  0  0
M  END
>  <StandardizerResult>
Tautomerize


>  <CdId>
98

>  <Mol Weight>
249.22

>  <Formula>
C12H9F2N3O

>  <Molecule ChEMBL ID>
CHEMBL354788

>  <Molecule Max Phase>
0

>  <Molecular Weight>
249.22

>  <#RO5 Violations>
0

>  <AlogP>
2.39

>  <Compound Key>
2473

>  <Standard Type>
pKa_B1

>  <Standard Value>
8.2

>  <Comment>
'B1 Functional Group: 4-Quiniazolinamine, 1,2-dihydro-; Ionisation Formula: A0B1 (Functional Group: the part of the molecule the pKa refers to; Ionisation formula: AxBy where 'A' refers to acidic centers within the molecule that are appreciably ionised at a pH <= 11 and 'x' equals 0, 1 or 2; and 'B' refers to basic centers within the molecule that are appreciably ionised at a pH >= 2 and 'y' equals 0, 1, 2 or 3).'

>  <Potential Duplicate>
false

>  <Assay ChEMBL ID>
CHEMBL3301362

>  <Assay Description>
ASTRAZENECA: Most basic pKa value (pKa B1) determined by absorption and potentiometric titration using standard methodology from Sirius Analytical. Experimental range Bases: >= 2.

>  <Assay Type>
P

>  <BAO Format ID>
BAO_0000100

>  <BAO Label>
small-molecule physicochemical format

>  <Target ChEMBL ID>
CHEMBL2362975

>  <Target Name>
No relevant target

>  <Target Type>
NO TARGET

>  <Document ChEMBL ID>
CHEMBL3301361

>  <Source ID>
27

>  <Source Description>
AstraZeneca Deposited Data

>  <Strongest basic pKa>
4.9

>  <deltapKa>
3.2956353093461397

>  <Strongest basic pKa_Taut>
4.9

>  <deltapKa_TAut>
3.2956353093461397

$$$$

  Mrv1920 03272013312D          

 25 26  0  0  0  0            999 V2000
   -3.5724   -0.4125    0.0000 C   0  0  0  0  0  0  0  0  0  0  0  0
   -2.8579    0.0000    0.0000 C   0  0  0  0  0  0  0  0  0  0  0  0
   -2.1434   -0.4125    0.0000 C   0  0  0  0  0  0  0  0  0  0  0  0
   -1.4289    0.0000    0.0000 C   0  0  0  0  0  0  0  0  0  0  0  0
   -0.7145   -0.4125    0.0000 N   0  0  0  0  0  0  0  0  0  0  0  0
   -0.7145   -1.2375    0.0000 C   0  0  0  0  0  0  0  0  0  0  0  0
   -1.4289   -1.6500    0.0000 C   0  0  0  0  0  0  0  0  0  0  0  0
   -1.4289   -2.4750    0.0000 C   0  0  0  0  0  0  0  0  0  0  0  0
   -2.1434   -2.8875    0.0000 C   0  0  0  0  0  0  0  0  0  0  0  0
   -2.8579   -2.4750    0.0000 O   0  0  0  0  0  0  0  0  0  0  0  0
   -2.1434   -3.7125    0.0000 O   0  0  0  0  0  0  0  0  0  0  0  0
   -0.7145   -2.8875    0.0000 C   0  0  0  0  0  0  0  0  0  0  0  0
    0.0000   -2.4750    0.0000 C   0  0  0  0  0  0  0  0  0  0  0  0
    0.7145   -2.8875    0.0000 S   0  0  0  0  0  0  0  0  0  0  0  0
    0.3020   -3.6020    0.0000 N   0  0  0  0  0  0  0  0  0  0  0  0
    1.1270   -2.1730    0.0000 O   0  0  0  0  0  0  0  0  0  0  0  0
    1.4289   -3.3000    0.0000 O   0  0  0  0  0  0  0  0  0  0  0  0
    0.0000   -1.6500    0.0000 C   0  0  0  0  0  0  0  0  0  0  0  0
    0.7145   -1.2375    0.0000 O   0  0  0  0  0  0  0  0  0  0  0  0
    0.7145   -0.4125    0.0000 C   0  0  0  0  0  0  0  0  0  0  0  0
    0.0000    0.0000    0.0000 C   0  0  0  0  0  0  0  0  0  0  0  0
    0.0000    0.8250    0.0000 C   0  0  0  0  0  0  0  0  0  0  0  0
    0.7145    1.2375    0.0000 C   0  0  0  0  0  0  0  0  0  0  0  0
    1.4289    0.8250    0.0000 C   0  0  0  0  0  0  0  0  0  0  0  0
    1.4289    0.0000    0.0000 C   0  0  0  0  0  0  0  0  0  0  0  0
  1  2  1  0  0  0  0
  2  3  1  0  0  0  0
  3  4  1  0  0  0  0
  4  5  1  0  0  0  0
  5  6  1  0  0  0  0
  6  7  2  0  0  0  0
  7  8  1  0  0  0  0
  8  9  1  0  0  0  0
  9 10  2  0  0  0  0
  9 11  1  0  0  0  0
  8 12  2  0  0  0  0
 12 13  1  0  0  0  0
 13 14  1  0  0  0  0
 14 15  1  0  0  0  0
 14 16  2  0  0  0  0
 14 17  2  0  0  0  0
 13 18  2  0  0  0  0
  6 18  1  0  0  0  0
 18 19  1  0  0  0  0
 19 20  1  0  0  0  0
 20 21  2  0  0  0  0
 21 22  1  0  0  0  0
 22 23  2  0  0  0  0
 23 24  1  0  0  0  0
 24 25  2  0  0  0  0
 20 25  1  0  0  0  0
M  END
>  <StandardizerResult>
Tautomerize


>  <CdId>
80

>  <Mol Weight>
364.42

>  <Formula>
C17H20N2O5S

>  <Molecule ChEMBL ID>
CHEMBL1072

>  <Molecule Name>
BUMETANIDE

>  <Molecule Max Phase>
4

>  <Molecular Weight>
364.42

>  <#RO5 Violations>
0

>  <AlogP>
3.04

>  <Compound Key>
1506

>  <Standard Type>
pKa_B1

>  <Standard Value>
6.07

>  <Comment>
'B1 Functional Group: Benzylamine; Ionisation Formula: A2B1 (Functional Group: the part of the molecule the pKa refers to; Ionisation formula: AxBy where 'A' refers to acidic centers within the molecule that are appreciably ionised at a pH <= 11 and 'x' equals 0, 1 or 2; and 'B' refers to basic centers within the molecule that are appreciably ionised at a pH >= 2 and 'y' equals 0, 1, 2 or 3).'

>  <Potential Duplicate>
false

>  <Assay ChEMBL ID>
CHEMBL3301362

>  <Assay Description>
ASTRAZENECA: Most basic pKa value (pKa B1) determined by absorption and potentiometric titration using standard methodology from Sirius Analytical. Experimental range Bases: >= 2.

>  <Assay Type>
P

>  <BAO Format ID>
BAO_0000100

>  <BAO Label>
small-molecule physicochemical format

>  <Target ChEMBL ID>
CHEMBL2362975

>  <Target Name>
No relevant target

>  <Target Type>
NO TARGET

>  <Document ChEMBL ID>
CHEMBL3301361

>  <Source ID>
27

>  <Source Description>
AstraZeneca Deposited Data

>  <Strongest basic pKa>
2.7

>  <deltapKa>
3.372626664557298

>  <Strongest basic pKa_Taut>
2.7

>  <deltapKa_TAut>
3.372626664557298

$$$$

  Mrv1920 03272013312D          

 20 22  0  0  0  0            999 V2000
    7.0807    3.6614    0.0000 C   0  0  0  0  0  0  0  0  0  0  0  0
    6.8405    2.8721    0.0000 C   0  0  0  0  0  0  0  0  0  0  0  0
    6.0369    2.6855    0.0000 O   0  0  0  0  0  0  0  0  0  0  0  0
    5.7967    1.8962    0.0000 C   0  0  0  0  0  0  0  0  0  0  0  0
    6.3602    1.2936    0.0000 O   0  0  0  0  0  0  0  0  0  0  0  0
    4.9931    1.7096    0.0000 N   0  0  0  0  0  0  0  0  0  0  0  0
    4.7529    0.9203    0.0000 C   0  0  0  0  0  0  0  0  0  0  0  0
    3.9493    0.7337    0.0000 C   0  0  0  0  0  0  0  0  0  0  0  0
    3.3859    1.3363    0.0000 C   0  0  0  0  0  0  0  0  0  0  0  0
    3.6261    2.1256    0.0000 C   0  0  0  0  0  0  0  0  0  0  0  0
    4.4297    2.3122    0.0000 C   0  0  0  0  0  0  0  0  0  0  0  0
    3.1457    0.5470    0.0000 N   0  0  0  0  0  0  0  0  0  0  0  0
    2.3421    0.3604    0.0000 C   0  0  0  0  0  0  0  0  0  0  0  0
    2.1019   -0.4289    0.0000 N   0  0  0  0  0  0  0  0  0  0  0  0
    1.7787    0.9630    0.0000 C   0  0  0  0  0  0  0  0  0  0  0  0
    0.9538    0.9475    0.0000 S   0  0  0  0  0  0  0  0  0  0  0  0
    0.6842    1.7272    0.0000 C   0  0  0  0  0  0  0  0  0  0  0  0
    1.3424    2.2246    0.0000 C   0  0  0  0  0  0  0  0  0  0  0  0
    2.0188    1.7523    0.0000 C   0  0  0  0  0  0  0  0  0  0  0  0
    2.8224    1.9389    0.0000 N   0  0  0  0  0  0  0  0  0  0  0  0
  1  2  1  0  0  0  0
  2  3  1  0  0  0  0
  3  4  1  0  0  0  0
  4  5  2  0  0  0  0
  4  6  1  0  0  0  0
  6  7  1  0  0  0  0
  7  8  1  0  0  0  0
  8  9  1  0  0  0  0
  9 10  1  0  0  0  0
 10 11  1  0  0  0  0
  6 11  1  0  0  0  0
  9 12  1  0  0  0  0
 12 13  2  0  0  0  0
 13 14  1  0  0  0  0
 13 15  1  0  0  0  0
 15 16  1  0  0  0  0
 16 17  1  0  0  0  0
 17 18  2  0  0  0  0
 18 19  1  0  0  0  0
 15 19  2  0  0  0  0
 19 20  1  0  0  0  0
  9 20  1  0  0  0  0
M  END
>  <StandardizerResult>
Tautomerize


>  <CdId>
17

>  <Mol Weight>
294.37

>  <Formula>
C13H18N4O2S

>  <Molecule ChEMBL ID>
CHEMBL170176

>  <Molecule Max Phase>
0

>  <Molecular Weight>
294.38

>  <#RO5 Violations>
0

>  <AlogP>
1.83

>  <Compound Key>
1528

>  <Standard Type>
pKa_B1

>  <Standard Value>
10.47

>  <Comment>
'B1 Functional Group: 1,2-Dihydrothieno[3,2-d]pyrimidin-4-amine; Ionisation Formula: A0B1 (Functional Group: the part of the molecule the pKa refers to; Ionisation formula: AxBy where 'A' refers to acidic centers within the molecule that are appreciably ionised at a pH <= 11 and 'x' equals 0, 1 or 2; and 'B' refers to basic centers within the molecule that are appreciably ionised at a pH >= 2 and 'y' equals 0, 1, 2 or 3).'

>  <Potential Duplicate>
false

>  <Assay ChEMBL ID>
CHEMBL3301362

>  <Assay Description>
ASTRAZENECA: Most basic pKa value (pKa B1) determined by absorption and potentiometric titration using standard methodology from Sirius Analytical. Experimental range Bases: >= 2.

>  <Assay Type>
P

>  <BAO Format ID>
BAO_0000100

>  <BAO Label>
small-molecule physicochemical format

>  <Target ChEMBL ID>
CHEMBL2362975

>  <Target Name>
No relevant target

>  <Target Type>
NO TARGET

>  <Document ChEMBL ID>
CHEMBL3301361

>  <Source ID>
27

>  <Source Description>
AstraZeneca Deposited Data

>  <Strongest basic pKa>
7.04

>  <deltapKa>
3.4304715476888568

>  <Strongest basic pKa_Taut>
7.04

>  <deltapKa_TAut>
3.4304715476888568

$$$$

  Mrv1920 03272013312D          

 26 28  0  0  1  0            999 V2000
    2.8579   -2.4750    0.0000 C   0  0  0  0  0  0  0  0  0  0  0  0
    2.1434   -2.8875    0.0000 C   0  0  2  0  0  0  0  0  0  0  0  0
    2.1434   -3.7125    0.0000 C   0  0  0  0  0  0  0  0  0  0  0  0
    2.8579   -4.1250    0.0000 O   0  0  0  0  0  0  0  0  0  0  0  0
    1.4289   -2.4750    0.0000 N   0  0  0  0  0  0  0  0  0  0  0  0
    1.4289   -1.6500    0.0000 C   0  0  0  0  0  0  0  0  0  0  0  0
    0.7145   -1.2375    0.0000 N   0  0  0  0  0  0  0  0  0  0  0  0
    0.7145   -0.4125    0.0000 C   0  0  0  0  0  0  0  0  0  0  0  0
    0.0000    0.0000    0.0000 S   0  0  0  0  0  0  0  0  0  0  0  0
   -0.7145   -0.4125    0.0000 C   0  0  0  0  0  0  0  0  0  0  0  0
   -1.4289    0.0000    0.0000 C   0  0  0  0  0  0  0  0  0  0  0  0
   -2.1434   -0.4125    0.0000 C   0  0  0  0  0  0  0  0  0  0  0  0
   -2.8579    0.0000    0.0000 C   0  0  0  0  0  0  0  0  0  0  0  0
   -2.8579    0.8250    0.0000 C   0  0  0  0  0  0  0  0  0  0  0  0
   -2.1434    1.2375    0.0000 C   0  0  0  0  0  0  0  0  0  0  0  0
   -2.1434    2.0625    0.0000 F   0  0  0  0  0  0  0  0  0  0  0  0
   -1.4289    0.8250    0.0000 C   0  0  0  0  0  0  0  0  0  0  0  0
   -0.7145    1.2375    0.0000 F   0  0  0  0  0  0  0  0  0  0  0  0
    1.4289    0.0000    0.0000 N   0  0  0  0  0  0  0  0  0  0  0  0
    2.1434   -0.4125    0.0000 C   0  0  0  0  0  0  0  0  0  0  0  0
    2.8579    0.0000    0.0000 N   0  0  0  0  0  0  0  0  0  0  0  0
    3.5724   -0.4125    0.0000 C   0  0  0  0  0  0  0  0  0  0  0  0
    4.2868    0.0000    0.0000 N   0  0  0  0  0  0  0  0  0  0  0  0
    3.5724   -1.2375    0.0000 C   0  0  0  0  0  0  0  0  0  0  0  0
    2.8579   -1.6500    0.0000 N   0  0  0  0  0  0  0  0  0  0  0  0
    2.1434   -1.2375    0.0000 C   0  0  0  0  0  0  0  0  0  0  0  0
  2  1  1  6  0  0  0
  2  3  1  0  0  0  0
  3  4  1  0  0  0  0
  2  5  1  0  0  0  0
  5  6  1  0  0  0  0
  6  7  2  0  0  0  0
  7  8  1  0  0  0  0
  8  9  1  0  0  0  0
  9 10  1  0  0  0  0
 10 11  1  0  0  0  0
 11 12  2  0  0  0  0
 12 13  1  0  0  0  0
 13 14  2  0  0  0  0
 14 15  1  0  0  0  0
 15 16  1  0  0  0  0
 15 17  2  0  0  0  0
 11 17  1  0  0  0  0
 17 18  1  0  0  0  0
  8 19  2  0  0  0  0
 19 20  1  0  0  0  0
 20 21  2  0  0  0  0
 21 22  1  0  0  0  0
 22 23  1  0  0  0  0
 22 24  2  0  0  0  0
 24 25  1  0  0  0  0
 25 26  2  0  0  0  0
  6 26  1  0  0  0  0
 20 26  1  0  0  0  0
M  END
>  <StandardizerResult>
Tautomerize


>  <CdId>
175

>  <Mol Weight>
378.4

>  <Formula>
C16H16F2N6OS

>  <Molecule ChEMBL ID>
CHEMBL271703

>  <Molecule Max Phase>
0

>  <Molecular Weight>
378.41

>  <#RO5 Violations>
0

>  <AlogP>
2.37

>  <Compound Key>
2294

>  <Standard Type>
pKa_B1

>  <Standard Value>
4.2

>  <Comment>
'B1 Functional Group: Pteridine-4,7-diamine; Ionisation Formula: A0B1 (Functional Group: the part of the molecule the pKa refers to; Ionisation formula: AxBy where 'A' refers to acidic centers within the molecule that are appreciably ionised at a pH <= 11 and 'x' equals 0, 1 or 2; and 'B' refers to basic centers within the molecule that are appreciably ionised at a pH >= 2 and 'y' equals 0, 1, 2 or 3).'

>  <Potential Duplicate>
false

>  <Assay ChEMBL ID>
CHEMBL3301362

>  <Assay Description>
ASTRAZENECA: Most basic pKa value (pKa B1) determined by absorption and potentiometric titration using standard methodology from Sirius Analytical. Experimental range Bases: >= 2.

>  <Assay Type>
P

>  <BAO Format ID>
BAO_0000100

>  <BAO Label>
small-molecule physicochemical format

>  <Target ChEMBL ID>
CHEMBL2362975

>  <Target Name>
No relevant target

>  <Target Type>
NO TARGET

>  <Document ChEMBL ID>
CHEMBL3301361

>  <Source ID>
27

>  <Source Description>
AstraZeneca Deposited Data

>  <Strongest basic pKa>
0.74

>  <deltapKa>
3.4604647780639137

>  <Strongest basic pKa_Taut>
0.74

>  <deltapKa_TAut>
3.4604647780639137

$$$$

  Mrv1920 03272013312D          

 12 13  0  0  1  0            999 V2000
    4.6713    2.4188    0.0000 C   0  0  0  0  0  0  0  0  0  0  0  0
    4.1569    1.7738    0.0000 C   0  0  1  0  0  0  0  0  0  0  0  0
    4.5149    1.0305    0.0000 C   0  0  0  0  0  0  0  0  0  0  0  0
    4.1569    0.2872    0.0000 N   0  0  0  0  0  0  0  0  0  0  0  0
    3.3526    0.1036    0.0000 C   0  0  0  0  0  0  0  0  0  0  0  0
    3.1690   -0.7007    0.0000 N   0  0  0  0  0  0  0  0  0  0  0  0
    2.7076    0.6180    0.0000 C   0  0  0  0  0  0  0  0  0  0  0  0
    1.9230    0.3631    0.0000 S   0  0  0  0  0  0  0  0  0  0  0  0
    1.4380    1.0305    0.0000 C   0  0  0  0  0  0  0  0  0  0  0  0
    1.9230    1.6979    0.0000 C   0  0  0  0  0  0  0  0  0  0  0  0
    2.7076    1.4430    0.0000 C   0  0  0  0  0  0  0  0  0  0  0  0
    3.3526    1.9574    0.0000 O   0  0  0  0  0  0  0  0  0  0  0  0
  2  1  1  1  0  0  0
  2  3  1  0  0  0  0
  3  4  1  0  0  0  0
  4  5  2  0  0  0  0
  5  6  1  0  0  0  0
  5  7  1  0  0  0  0
  7  8  1  0  0  0  0
  8  9  1  0  0  0  0
  9 10  2  0  0  0  0
 10 11  1  0  0  0  0
  7 11  2  0  0  0  0
 11 12  1  0  0  0  0
  2 12  1  0  0  0  0
M  END
>  <StandardizerResult>
Tautomerize


>  <CdId>
246

>  <Mol Weight>
182.24

>  <Formula>
C8H10N2OS

>  <Molecule ChEMBL ID>
CHEMBL1221702

>  <Molecule Max Phase>
0

>  <Molecular Weight>
182.25

>  <#RO5 Violations>
0

>  <AlogP>
1.23

>  <Compound Key>
2616

>  <Standard Type>
pKa_B1

>  <Standard Value>
11.0

>  <Comment>
'B1 Functional Group: Thieno[2,3-f]-1,4-oxazepin-5-amine, 2,3-dihydro-; Ionisation Formula: A0B1 (Functional Group: the part of the molecule the pKa refers to; Ionisation formula: AxBy where 'A' refers to acidic centers within the molecule that are appreciably ionised at a pH <= 11 and 'x' equals 0, 1 or 2; and 'B' refers to basic centers within the molecule that are appreciably ionised at a pH >= 2 and 'y' equals 0, 1, 2 or 3).'

>  <Potential Duplicate>
false

>  <Assay ChEMBL ID>
CHEMBL3301362

>  <Assay Description>
ASTRAZENECA: Most basic pKa value (pKa B1) determined by absorption and potentiometric titration using standard methodology from Sirius Analytical. Experimental range Bases: >= 2.

>  <Assay Type>
P

>  <BAO Format ID>
BAO_0000100

>  <BAO Label>
small-molecule physicochemical format

>  <Target ChEMBL ID>
CHEMBL2362975

>  <Target Name>
No relevant target

>  <Target Type>
NO TARGET

>  <Document ChEMBL ID>
CHEMBL3301361

>  <Source ID>
27

>  <Source Description>
AstraZeneca Deposited Data

>  <Strongest basic pKa>
6.71

>  <deltapKa>
4.286128128070891

>  <Strongest basic pKa_Taut>
6.71

>  <deltapKa_TAut>
4.286128128070891

$$$$
